/*---------------------------------------------------------------------------*\
  =========                 |
  \\      /  F ield         | OpenFOAM: The Open Source CFD Toolbox
   \\    /   O peration     | Website:  https://openfoam.org
    \\  /    A nd           | Version:  12
     \\/     M anipulation  |
\*---------------------------------------------------------------------------*/
Build  : 12-86e126a7bc4d
Exec   : foamMultiRun
Date   : Aug 02 2025
Time   : 10:39:56
Host   : "DESKTOP-LBJCJKU"
PID    : 2949
I/O    : uncollated
Case   : /home/aaryamehta/OpenFOAM/aaryamehta-12/run/heatExchanger
nProcs : 1
sigFpe : Enabling floating point exception trapping (FOAM_SIGFPE).
fileModificationChecking : Monitoring run-time modified files using timeStampMaster (fileModificationSkew 10)
allowSystemOperations : Allowing user-supplied system call operations

// * * * * * * * * * * * * * * * * * * * * * * * * * * * * * * * * * * * * * //
Create time

Selecting solver fluid
Selecting thermodynamics package 
{
    type            heRhoThermo;
    mixture         pureMixture;
    transport       const;
    thermo          eConst;
    equationOfState rPolynomial;
    specie          specie;
    energy          sensibleInternalEnergy;
}

Selecting turbulence model type laminar
Selecting laminar stress model Stokes
No MRF models present

Selecting thermophysical transport type laminar
Selecting laminar thermophysical transport model Fourier
Creating fvModels from "constant/fvModels"

Selecting finite volume model type interRegionHeatTransfer
    Name: porousToAir
Selecting heatTransferCoefficientModel constant
Selecting solver fluid
Selecting thermodynamics package 
{
    type            heRhoThermo;
    mixture         pureMixture;
    transport       sutherland;
    thermo          janaf;
    equationOfState perfectGas;
    specie          specie;
    energy          sensibleInternalEnergy;
}

Selecting turbulence model type RAS
Selecting RAS turbulence model kEpsilon
RAS
{
    model           kEpsilon;
    turbulence      on;
    printCoeffs     on;
    Cmu             0.09;
    C1              1.44;
    C2              1.92;
    C3              0;
    sigmak          1;
    sigmaEps        1.3;
}

Creating MRF zone list from MRFProperties
    creating MRF zone: MRF
    - selecting cells using cellZone rotor
    - selected 13500 cell(s) with volume 0.00353231
Selecting thermophysical transport type RAS
Selecting default RAS thermophysical transport model unityLewisEddyDiffusivity
Creating fvModels from "constant/fvModels"

Selecting finite volume model type interRegionHeatTransfer
    Name: airToPorous
Selecting finite volume model type interRegionPorosityForce
    Name: porosity
    - selecting inter region mapping
    cellsToCells: Calculating couplings between 243000 source cells and 140000 target cells
        Overlapping volume = 0.0075
        1586736 couplings calculated in 64.9807s
Porosity region porosity:
    selecting model: DarcyForchheimer
    creating porous zone: porosity:porous

PIMPLE: Region porous
PIMPLE: No convergence criteria found


PIMPLE: Region air
PIMPLE: No convergence criteria found


PIMPLE: Operating solver in steady-state mode with 1 outer corrector
PIMPLE: Operating solver in SIMPLE mode



Starting time loop

air    Constructing face momentum rhoUf
       Time = 1s
       
porous DILUPBiCGStab:  Solving for Ux, Initial residual = 1, Final residual = 0.00597599, No Iterations 1
porous DILUPBiCGStab:  Solving for Uy, Initial residual = 0.966878, Final residual = 0.00861318, No Iterations 1
porous DILUPBiCGStab:  Solving for Uz, Initial residual = 0.995238, Final residual = 0.0052552, No Iterations 1
air    DILUPBiCGStab:  Solving for Ux, Initial residual = 1, Final residual = 0.00867466, No Iterations 1
air    DILUPBiCGStab:  Solving for Uy, Initial residual = 1, Final residual = 0.00867467, No Iterations 1
air    DILUPBiCGStab:  Solving for Uz, Initial residual = 1, Final residual = 0.00351287, No Iterations 1
porous     - selecting inter region mapping
porous     cellsToCells: Calculating couplings between 140000 source cells and 243000 target cells
porous         Overlapping volume = 0.0075
porous         1590848 couplings calculated in 57.0839s
porous DILUPBiCGStab:  Solving for e, Initial residual = 1, Final residual = 0.0153255, No Iterations 1
air    DILUPBiCGStab:  Solving for e, Initial residual = 1, Final residual = 0.00353409, No Iterations 1
porous GAMG:  Solving for p_rgh, Initial residual = 0.999999, Final residual = 0.00268567, No Iterations 8
porous time step continuity errors : sum local = 0.00161564, global = 0.000352109, cumulative = 0.000352109
air    GAMG:  Solving for p_rgh, Initial residual = 1, Final residual = 0.00818478, No Iterations 12
air    time step continuity errors : sum local = 0.0427891, global = -0.00399982, cumulative = -0.00399982
air    DILUPBiCGStab:  Solving for epsilon, Initial residual = 0.0395535, Final residual = 0.000136456, No Iterations 1
air    DILUPBiCGStab:  Solving for k, Initial residual = 1, Final residual = 0.00749005, No Iterations 1
       ExecutionTime = 130.708 s  ClockTime = 130 s
       
       Time = 2s
       
porous DILUPBiCGStab:  Solving for Ux, Initial residual = 0.668924, Final residual = 0.00619748, No Iterations 1
porous DILUPBiCGStab:  Solving for Uy, Initial residual = 0.417468, Final residual = 0.00390016, No Iterations 1
porous DILUPBiCGStab:  Solving for Uz, Initial residual = 0.402774, Final residual = 0.00638338, No Iterations 1
air    DILUPBiCGStab:  Solving for Ux, Initial residual = 0.420455, Final residual = 0.00172645, No Iterations 1
air    DILUPBiCGStab:  Solving for Uy, Initial residual = 0.420438, Final residual = 0.00172542, No Iterations 1
air    DILUPBiCGStab:  Solving for Uz, Initial residual = 0.764544, Final residual = 0.00234751, No Iterations 1
porous DILUPBiCGStab:  Solving for e, Initial residual = 0.208288, Final residual = 0.00343395, No Iterations 1
air    DILUPBiCGStab:  Solving for e, Initial residual = 0.0697989, Final residual = 0.000484485, No Iterations 1
porous GAMG:  Solving for p_rgh, Initial residual = 0.00883897, Final residual = 3.05169e-05, No Iterations 8
porous time step continuity errors : sum local = 0.0019819, global = -0.000441261, cumulative = -8.91523e-05
air    GAMG:  Solving for p_rgh, Initial residual = 0.376833, Final residual = 0.0023883, No Iterations 6
air    time step continuity errors : sum local = 0.240276, global = 0.0726768, cumulative = 0.068677
air    DILUPBiCGStab:  Solving for epsilon, Initial residual = 0.0569036, Final residual = 0.000266168, No Iterations 1
air    DILUPBiCGStab:  Solving for k, Initial residual = 0.722519, Final residual = 0.00533021, No Iterations 1
       ExecutionTime = 132.876 s  ClockTime = 133 s
       
       Time = 3s
       
porous DILUPBiCGStab:  Solving for Ux, Initial residual = 0.161929, Final residual = 0.0013559, No Iterations 1
porous DILUPBiCGStab:  Solving for Uy, Initial residual = 0.262577, Final residual = 0.00244129, No Iterations 1
porous DILUPBiCGStab:  Solving for Uz, Initial residual = 0.244126, Final residual = 0.00386429, No Iterations 1
air    DILUPBiCGStab:  Solving for Ux, Initial residual = 0.119826, Final residual = 0.000463838, No Iterations 1
air    DILUPBiCGStab:  Solving for Uy, Initial residual = 0.121597, Final residual = 0.00046799, No Iterations 1
air    DILUPBiCGStab:  Solving for Uz, Initial residual = 0.288793, Final residual = 0.000911237, No Iterations 1
porous DILUPBiCGStab:  Solving for e, Initial residual = 0.119091, Final residual = 0.00195773, No Iterations 1
air    DILUPBiCGStab:  Solving for e, Initial residual = 0.0544733, Final residual = 0.000347176, No Iterations 1
porous GAMG:  Solving for p_rgh, Initial residual = 0.0160106, Final residual = 0.000150857, No Iterations 7
porous time step continuity errors : sum local = 0.00227525, global = 0.000736797, cumulative = 0.000647644
air    GAMG:  Solving for p_rgh, Initial residual = 0.334417, Final residual = 0.00295998, No Iterations 11
air    time step continuity errors : sum local = 0.0661021, global = -0.0234533, cumulative = 0.0452237
air    DILUPBiCGStab:  Solving for epsilon, Initial residual = 0.053194, Final residual = 0.000250664, No Iterations 1
air    DILUPBiCGStab:  Solving for k, Initial residual = 0.175685, Final residual = 0.00137585, No Iterations 1
       ExecutionTime = 135.346 s  ClockTime = 135 s
       
       Time = 4s
       
porous DILUPBiCGStab:  Solving for Ux, Initial residual = 0.178634, Final residual = 0.00181979, No Iterations 1
porous DILUPBiCGStab:  Solving for Uy, Initial residual = 0.152511, Final residual = 0.00141533, No Iterations 1
porous DILUPBiCGStab:  Solving for Uz, Initial residual = 0.137982, Final residual = 0.00217555, No Iterations 1
air    DILUPBiCGStab:  Solving for Ux, Initial residual = 0.128085, Final residual = 0.000636389, No Iterations 1
air    DILUPBiCGStab:  Solving for Uy, Initial residual = 0.121561, Final residual = 0.000611362, No Iterations 1
air    DILUPBiCGStab:  Solving for Uz, Initial residual = 0.271876, Final residual = 0.000852588, No Iterations 1
porous DILUPBiCGStab:  Solving for e, Initial residual = 0.0831792, Final residual = 0.00126821, No Iterations 1
air    DILUPBiCGStab:  Solving for e, Initial residual = 0.0383791, Final residual = 0.000206345, No Iterations 1
porous GAMG:  Solving for p_rgh, Initial residual = 0.00423473, Final residual = 1.40813e-05, No Iterations 8
porous time step continuity errors : sum local = 0.000468797, global = 0.000107788, cumulative = 0.000755432
air    GAMG:  Solving for p_rgh, Initial residual = 0.190775, Final residual = 0.0018164, No Iterations 10
air    time step continuity errors : sum local = 0.0680284, global = 0.021704, cumulative = 0.0669277
air    DILUPBiCGStab:  Solving for epsilon, Initial residual = 0.0261173, Final residual = 0.000126562, No Iterations 1
air    DILUPBiCGStab:  Solving for k, Initial residual = 0.066362, Final residual = 0.00051602, No Iterations 1
       ExecutionTime = 138.157 s  ClockTime = 138 s
       
       Time = 5s
       
porous DILUPBiCGStab:  Solving for Ux, Initial residual = 0.119535, Final residual = 0.00118163, No Iterations 1
porous DILUPBiCGStab:  Solving for Uy, Initial residual = 0.112089, Final residual = 0.00094461, No Iterations 1
porous DILUPBiCGStab:  Solving for Uz, Initial residual = 0.0889804, Final residual = 0.00138565, No Iterations 1
air    DILUPBiCGStab:  Solving for Ux, Initial residual = 0.127604, Final residual = 0.000590132, No Iterations 1
air    DILUPBiCGStab:  Solving for Uy, Initial residual = 0.125594, Final residual = 0.000580413, No Iterations 1
air    DILUPBiCGStab:  Solving for Uz, Initial residual = 0.258217, Final residual = 0.000827204, No Iterations 1
porous DILUPBiCGStab:  Solving for e, Initial residual = 0.0641714, Final residual = 0.000868455, No Iterations 1
air    DILUPBiCGStab:  Solving for e, Initial residual = 0.0339355, Final residual = 0.000199783, No Iterations 1
porous GAMG:  Solving for p_rgh, Initial residual = 0.00740165, Final residual = 1.73921e-05, No Iterations 8
porous time step continuity errors : sum local = 0.000258412, global = 6.49796e-05, cumulative = 0.000820412
air    GAMG:  Solving for p_rgh, Initial residual = 0.256339, Final residual = 0.00249417, No Iterations 11
air    time step continuity errors : sum local = 0.0481889, global = 0.0157008, cumulative = 0.0826285
air    DILUPBiCGStab:  Solving for epsilon, Initial residual = 0.020129, Final residual = 8.81695e-05, No Iterations 1
air    DILUPBiCGStab:  Solving for k, Initial residual = 0.0453247, Final residual = 0.000306742, No Iterations 1
       ExecutionTime = 140.921 s  ClockTime = 141 s
       
       Time = 6s
       
porous DILUPBiCGStab:  Solving for Ux, Initial residual = 0.0653853, Final residual = 0.000602389, No Iterations 1
porous DILUPBiCGStab:  Solving for Uy, Initial residual = 0.089439, Final residual = 0.000685845, No Iterations 1
porous DILUPBiCGStab:  Solving for Uz, Initial residual = 0.0698178, Final residual = 0.00107221, No Iterations 1
air    DILUPBiCGStab:  Solving for Ux, Initial residual = 0.0264291, Final residual = 0.000123135, No Iterations 1
air    DILUPBiCGStab:  Solving for Uy, Initial residual = 0.0249076, Final residual = 0.0001179, No Iterations 1
air    DILUPBiCGStab:  Solving for Uz, Initial residual = 0.0592997, Final residual = 0.000234684, No Iterations 1
porous DILUPBiCGStab:  Solving for e, Initial residual = 0.0522985, Final residual = 0.000621778, No Iterations 1
air    DILUPBiCGStab:  Solving for e, Initial residual = 0.0315637, Final residual = 0.000171296, No Iterations 1
porous GAMG:  Solving for p_rgh, Initial residual = 0.0188817, Final residual = 9.73964e-05, No Iterations 6
porous time step continuity errors : sum local = 0.000292822, global = -4.70154e-05, cumulative = 0.000773396
air    GAMG:  Solving for p_rgh, Initial residual = 0.210187, Final residual = 0.000825851, No Iterations 6
air    time step continuity errors : sum local = 0.0107673, global = -0.00498507, cumulative = 0.0776434
air    DILUPBiCGStab:  Solving for epsilon, Initial residual = 0.0181093, Final residual = 7.5108e-05, No Iterations 1
air    DILUPBiCGStab:  Solving for k, Initial residual = 0.0413304, Final residual = 0.000243126, No Iterations 1
       ExecutionTime = 143.438 s  ClockTime = 144 s
       
       Time = 7s
       
porous DILUPBiCGStab:  Solving for Ux, Initial residual = 0.0480086, Final residual = 0.000416948, No Iterations 1
porous DILUPBiCGStab:  Solving for Uy, Initial residual = 0.0770631, Final residual = 0.000542682, No Iterations 1
porous DILUPBiCGStab:  Solving for Uz, Initial residual = 0.0589319, Final residual = 0.000886569, No Iterations 1
air    DILUPBiCGStab:  Solving for Ux, Initial residual = 0.046011, Final residual = 0.000192702, No Iterations 1
air    DILUPBiCGStab:  Solving for Uy, Initial residual = 0.0454626, Final residual = 0.00019045, No Iterations 1
air    DILUPBiCGStab:  Solving for Uz, Initial residual = 0.115194, Final residual = 0.000366995, No Iterations 1
porous DILUPBiCGStab:  Solving for e, Initial residual = 0.044228, Final residual = 0.000484275, No Iterations 1
air    DILUPBiCGStab:  Solving for e, Initial residual = 0.0209308, Final residual = 0.000107396, No Iterations 1
porous GAMG:  Solving for p_rgh, Initial residual = 0.00974542, Final residual = 9.2165e-05, No Iterations 7
porous time step continuity errors : sum local = 0.000389549, global = 0.00012093, cumulative = 0.000894326
air    GAMG:  Solving for p_rgh, Initial residual = 0.176666, Final residual = 0.00150005, No Iterations 11
air    time step continuity errors : sum local = 0.0167218, global = -0.005451, cumulative = 0.0721924
air    DILUPBiCGStab:  Solving for epsilon, Initial residual = 0.0143039, Final residual = 7.16661e-05, No Iterations 1
air    DILUPBiCGStab:  Solving for k, Initial residual = 0.0367732, Final residual = 0.000212543, No Iterations 1
       ExecutionTime = 145.923 s  ClockTime = 147 s
       
       Time = 8s
       
porous DILUPBiCGStab:  Solving for Ux, Initial residual = 0.0449421, Final residual = 0.000386677, No Iterations 1
porous DILUPBiCGStab:  Solving for Uy, Initial residual = 0.0666086, Final residual = 0.000440563, No Iterations 1
porous DILUPBiCGStab:  Solving for Uz, Initial residual = 0.0487078, Final residual = 0.000723697, No Iterations 1
air    DILUPBiCGStab:  Solving for Ux, Initial residual = 0.0132883, Final residual = 5.41165e-05, No Iterations 1
air    DILUPBiCGStab:  Solving for Uy, Initial residual = 0.0140475, Final residual = 5.6105e-05, No Iterations 1
air    DILUPBiCGStab:  Solving for Uz, Initial residual = 0.0278724, Final residual = 0.00010696, No Iterations 1
porous DILUPBiCGStab:  Solving for e, Initial residual = 0.0383531, Final residual = 0.000387502, No Iterations 1
air    DILUPBiCGStab:  Solving for e, Initial residual = 0.0216203, Final residual = 0.000109097, No Iterations 1
porous GAMG:  Solving for p_rgh, Initial residual = 0.00384102, Final residual = 1.38059e-05, No Iterations 5
porous time step continuity errors : sum local = 0.000105717, global = -4.51277e-05, cumulative = 0.000849199
air    GAMG:  Solving for p_rgh, Initial residual = 0.180269, Final residual = 0.00179636, No Iterations 10
air    time step continuity errors : sum local = 0.00924111, global = 0.00119072, cumulative = 0.0733831
air    DILUPBiCGStab:  Solving for epsilon, Initial residual = 0.0106932, Final residual = 6.64161e-05, No Iterations 1
air    DILUPBiCGStab:  Solving for k, Initial residual = 0.0316457, Final residual = 0.000193789, No Iterations 1
       ExecutionTime = 148.361 s  ClockTime = 149 s
       
       Time = 9s
       
porous DILUPBiCGStab:  Solving for Ux, Initial residual = 0.0407312, Final residual = 0.00033449, No Iterations 1
porous DILUPBiCGStab:  Solving for Uy, Initial residual = 0.0571325, Final residual = 0.000360317, No Iterations 1
porous DILUPBiCGStab:  Solving for Uz, Initial residual = 0.0404222, Final residual = 0.000591649, No Iterations 1
air    DILUPBiCGStab:  Solving for Ux, Initial residual = 0.0139291, Final residual = 7.30943e-05, No Iterations 1
air    DILUPBiCGStab:  Solving for Uy, Initial residual = 0.013011, Final residual = 6.97531e-05, No Iterations 1
air    DILUPBiCGStab:  Solving for Uz, Initial residual = 0.0294596, Final residual = 0.00010657, No Iterations 1
porous DILUPBiCGStab:  Solving for e, Initial residual = 0.0339039, Final residual = 0.000315087, No Iterations 1
air    DILUPBiCGStab:  Solving for e, Initial residual = 0.0194218, Final residual = 9.84449e-05, No Iterations 1
porous GAMG:  Solving for p_rgh, Initial residual = 0.00200585, Final residual = 4.51141e-06, No Iterations 8
porous time step continuity errors : sum local = 3.57942e-05, global = 7.80704e-06, cumulative = 0.000857006
air    GAMG:  Solving for p_rgh, Initial residual = 0.126481, Final residual = 0.00108619, No Iterations 9
air    time step continuity errors : sum local = 0.00732878, global = 0.00145955, cumulative = 0.0748427
air    DILUPBiCGStab:  Solving for epsilon, Initial residual = 0.00897894, Final residual = 6.19736e-05, No Iterations 1
air    DILUPBiCGStab:  Solving for k, Initial residual = 0.0276256, Final residual = 0.000188073, No Iterations 1
       ExecutionTime = 150.711 s  ClockTime = 151 s
       
       Time = 10s
       
porous DILUPBiCGStab:  Solving for Ux, Initial residual = 0.0345349, Final residual = 0.000269163, No Iterations 1
porous DILUPBiCGStab:  Solving for Uy, Initial residual = 0.050992, Final residual = 0.000305196, No Iterations 1
porous DILUPBiCGStab:  Solving for Uz, Initial residual = 0.0345998, Final residual = 0.000494008, No Iterations 1
air    DILUPBiCGStab:  Solving for Ux, Initial residual = 0.00830892, Final residual = 4.69301e-05, No Iterations 1
air    DILUPBiCGStab:  Solving for Uy, Initial residual = 0.0080198, Final residual = 4.53925e-05, No Iterations 1
air    DILUPBiCGStab:  Solving for Uz, Initial residual = 0.0178372, Final residual = 7.71054e-05, No Iterations 1
porous DILUPBiCGStab:  Solving for e, Initial residual = 0.030419, Final residual = 0.000265093, No Iterations 1
air    DILUPBiCGStab:  Solving for e, Initial residual = 0.0187849, Final residual = 9.67002e-05, No Iterations 1
porous GAMG:  Solving for p_rgh, Initial residual = 0.00184456, Final residual = 1.20522e-05, No Iterations 7
porous time step continuity errors : sum local = 8.02866e-05, global = -2.21462e-05, cumulative = 0.00083486
air    GAMG:  Solving for p_rgh, Initial residual = 0.105976, Final residual = 0.000906779, No Iterations 11
air    time step continuity errors : sum local = 0.00431586, global = 0.00123559, cumulative = 0.0760783
air    DILUPBiCGStab:  Solving for epsilon, Initial residual = 0.00847122, Final residual = 5.64524e-05, No Iterations 1
air    DILUPBiCGStab:  Solving for k, Initial residual = 0.0250519, Final residual = 0.000160753, No Iterations 1
       ExecutionTime = 152.998 s  ClockTime = 152 s
       
       Time = 11s
       
porous DILUPBiCGStab:  Solving for Ux, Initial residual = 0.0296495, Final residual = 0.000217205, No Iterations 1
porous DILUPBiCGStab:  Solving for Uy, Initial residual = 0.0456747, Final residual = 0.000262865, No Iterations 1
porous DILUPBiCGStab:  Solving for Uz, Initial residual = 0.0302723, Final residual = 0.000419527, No Iterations 1
air    DILUPBiCGStab:  Solving for Ux, Initial residual = 0.00668437, Final residual = 3.16597e-05, No Iterations 1
air    DILUPBiCGStab:  Solving for Uy, Initial residual = 0.00700546, Final residual = 3.23843e-05, No Iterations 1
air    DILUPBiCGStab:  Solving for Uz, Initial residual = 0.0108868, Final residual = 5.29337e-05, No Iterations 1
porous DILUPBiCGStab:  Solving for e, Initial residual = 0.0275939, Final residual = 0.00022805, No Iterations 1
air    DILUPBiCGStab:  Solving for e, Initial residual = 0.0178752, Final residual = 9.12354e-05, No Iterations 1
porous GAMG:  Solving for p_rgh, Initial residual = 0.00156201, Final residual = 1.41937e-05, No Iterations 5
porous time step continuity errors : sum local = 8.33317e-05, global = -7.32554e-06, cumulative = 0.000827534
air    GAMG:  Solving for p_rgh, Initial residual = 0.0770931, Final residual = 0.000500445, No Iterations 9
air    time step continuity errors : sum local = 0.00235133, global = 0.000252043, cumulative = 0.0763303
air    DILUPBiCGStab:  Solving for epsilon, Initial residual = 0.00822314, Final residual = 5.26301e-05, No Iterations 1
air    DILUPBiCGStab:  Solving for k, Initial residual = 0.0234356, Final residual = 0.000140968, No Iterations 1
       ExecutionTime = 155.129 s  ClockTime = 155 s
       
       Time = 12s
       
porous DILUPBiCGStab:  Solving for Ux, Initial residual = 0.0263182, Final residual = 0.000181842, No Iterations 1
porous DILUPBiCGStab:  Solving for Uy, Initial residual = 0.0414591, Final residual = 0.000230839, No Iterations 1
porous DILUPBiCGStab:  Solving for Uz, Initial residual = 0.0268223, Final residual = 0.00036011, No Iterations 1
air    DILUPBiCGStab:  Solving for Ux, Initial residual = 0.00733495, Final residual = 3.1488e-05, No Iterations 1
air    DILUPBiCGStab:  Solving for Uy, Initial residual = 0.0077724, Final residual = 3.25636e-05, No Iterations 1
air    DILUPBiCGStab:  Solving for Uz, Initial residual = 0.0130993, Final residual = 5.27367e-05, No Iterations 1
porous DILUPBiCGStab:  Solving for e, Initial residual = 0.0252831, Final residual = 0.000197502, No Iterations 1
air    DILUPBiCGStab:  Solving for e, Initial residual = 0.0168129, Final residual = 8.51171e-05, No Iterations 1
porous GAMG:  Solving for p_rgh, Initial residual = 0.00143056, Final residual = 8.90975e-06, No Iterations 4
porous time step continuity errors : sum local = 5.1207e-05, global = 1.1239e-05, cumulative = 0.000838773
air    GAMG:  Solving for p_rgh, Initial residual = 0.0586146, Final residual = 0.000423578, No Iterations 11
air    time step continuity errors : sum local = 0.00182441, global = -0.000536105, cumulative = 0.0757942
air    DILUPBiCGStab:  Solving for epsilon, Initial residual = 0.00803141, Final residual = 4.96941e-05, No Iterations 1
air    DILUPBiCGStab:  Solving for k, Initial residual = 0.0222661, Final residual = 0.000126005, No Iterations 1
       ExecutionTime = 157.188 s  ClockTime = 157 s
       
       Time = 13s
       
porous DILUPBiCGStab:  Solving for Ux, Initial residual = 0.023865, Final residual = 0.000157298, No Iterations 1
porous DILUPBiCGStab:  Solving for Uy, Initial residual = 0.0379279, Final residual = 0.000205117, No Iterations 1
porous DILUPBiCGStab:  Solving for Uz, Initial residual = 0.0239318, Final residual = 0.000311293, No Iterations 1
air    DILUPBiCGStab:  Solving for Ux, Initial residual = 0.0052744, Final residual = 2.62028e-05, No Iterations 1
air    DILUPBiCGStab:  Solving for Uy, Initial residual = 0.00563999, Final residual = 2.70645e-05, No Iterations 1
air    DILUPBiCGStab:  Solving for Uz, Initial residual = 0.00721958, Final residual = 3.5747e-05, No Iterations 1
porous DILUPBiCGStab:  Solving for e, Initial residual = 0.0233477, Final residual = 0.000171946, No Iterations 1
air    DILUPBiCGStab:  Solving for e, Initial residual = 0.0162579, Final residual = 8.22855e-05, No Iterations 1
porous GAMG:  Solving for p_rgh, Initial residual = 0.00117612, Final residual = 7.69776e-06, No Iterations 6
porous time step continuity errors : sum local = 4.40364e-05, global = 7.24088e-06, cumulative = 0.000846014
air    GAMG:  Solving for p_rgh, Initial residual = 0.0460871, Final residual = 0.000296456, No Iterations 8
air    time step continuity errors : sum local = 0.00109889, global = 0.000204659, cumulative = 0.0759989
air    DILUPBiCGStab:  Solving for epsilon, Initial residual = 0.00797387, Final residual = 4.77068e-05, No Iterations 1
air    DILUPBiCGStab:  Solving for k, Initial residual = 0.0212839, Final residual = 0.000114382, No Iterations 1
       ExecutionTime = 159.696 s  ClockTime = 159 s
       
       Time = 14s
       
porous DILUPBiCGStab:  Solving for Ux, Initial residual = 0.0217429, Final residual = 0.000139744, No Iterations 1
porous DILUPBiCGStab:  Solving for Uy, Initial residual = 0.0349192, Final residual = 0.000183889, No Iterations 1
porous DILUPBiCGStab:  Solving for Uz, Initial residual = 0.0215419, Final residual = 0.000270644, No Iterations 1
air    DILUPBiCGStab:  Solving for Ux, Initial residual = 0.00476678, Final residual = 2.52681e-05, No Iterations 1
air    DILUPBiCGStab:  Solving for Uy, Initial residual = 0.00497328, Final residual = 2.58052e-05, No Iterations 1
air    DILUPBiCGStab:  Solving for Uz, Initial residual = 0.00586944, Final residual = 2.9825e-05, No Iterations 1
porous DILUPBiCGStab:  Solving for e, Initial residual = 0.0216892, Final residual = 0.000153246, No Iterations 1
air    DILUPBiCGStab:  Solving for e, Initial residual = 0.0156658, Final residual = 7.94197e-05, No Iterations 1
porous GAMG:  Solving for p_rgh, Initial residual = 0.000978397, Final residual = 9.67162e-06, No Iterations 6
porous time step continuity errors : sum local = 5.37093e-05, global = 8.64385e-06, cumulative = 0.000854658
air    GAMG:  Solving for p_rgh, Initial residual = 0.0417902, Final residual = 0.000304983, No Iterations 9
air    time step continuity errors : sum local = 0.00110277, global = -0.00015104, cumulative = 0.0758478
air    DILUPBiCGStab:  Solving for epsilon, Initial residual = 0.00800691, Final residual = 4.65327e-05, No Iterations 1
air    DILUPBiCGStab:  Solving for k, Initial residual = 0.0204085, Final residual = 0.000104953, No Iterations 1
       ExecutionTime = 162.003 s  ClockTime = 162 s
       
       Time = 15s
       
porous DILUPBiCGStab:  Solving for Ux, Initial residual = 0.0198533, Final residual = 0.00012428, No Iterations 1
porous DILUPBiCGStab:  Solving for Uy, Initial residual = 0.0323334, Final residual = 0.000166309, No Iterations 1
porous DILUPBiCGStab:  Solving for Uz, Initial residual = 0.0195881, Final residual = 0.000236684, No Iterations 1
air    DILUPBiCGStab:  Solving for Ux, Initial residual = 0.00454931, Final residual = 2.35781e-05, No Iterations 1
air    DILUPBiCGStab:  Solving for Uy, Initial residual = 0.00484355, Final residual = 2.4297e-05, No Iterations 1
air    DILUPBiCGStab:  Solving for Uz, Initial residual = 0.00565763, Final residual = 2.88906e-05, No Iterations 1
porous DILUPBiCGStab:  Solving for e, Initial residual = 0.0202791, Final residual = 0.000137695, No Iterations 1
air    DILUPBiCGStab:  Solving for e, Initial residual = 0.0151797, Final residual = 7.72359e-05, No Iterations 1
porous GAMG:  Solving for p_rgh, Initial residual = 0.000884672, Final residual = 7.94596e-06, No Iterations 6
porous time step continuity errors : sum local = 4.24116e-05, global = 6.7959e-06, cumulative = 0.000861454
air    GAMG:  Solving for p_rgh, Initial residual = 0.035759, Final residual = 0.000314783, No Iterations 7
air    time step continuity errors : sum local = 0.00110222, global = -0.000137697, cumulative = 0.0757101
air    DILUPBiCGStab:  Solving for epsilon, Initial residual = 0.0080914, Final residual = 4.56027e-05, No Iterations 1
air    DILUPBiCGStab:  Solving for k, Initial residual = 0.0196281, Final residual = 9.70932e-05, No Iterations 1
       ExecutionTime = 164.118 s  ClockTime = 164 s
       
       Time = 16s
       
porous DILUPBiCGStab:  Solving for Ux, Initial residual = 0.0182341, Final residual = 0.000111004, No Iterations 1
porous DILUPBiCGStab:  Solving for Uy, Initial residual = 0.030099, Final residual = 0.000151544, No Iterations 1
porous DILUPBiCGStab:  Solving for Uz, Initial residual = 0.0179362, Final residual = 0.000208031, No Iterations 1
air    DILUPBiCGStab:  Solving for Ux, Initial residual = 0.00457797, Final residual = 2.25421e-05, No Iterations 1
air    DILUPBiCGStab:  Solving for Uy, Initial residual = 0.00492393, Final residual = 2.33513e-05, No Iterations 1
air    DILUPBiCGStab:  Solving for Uz, Initial residual = 0.00598455, Final residual = 2.89227e-05, No Iterations 1
porous DILUPBiCGStab:  Solving for e, Initial residual = 0.0190452, Final residual = 0.000123895, No Iterations 1
air    DILUPBiCGStab:  Solving for e, Initial residual = 0.0146608, Final residual = 7.46041e-05, No Iterations 1
porous GAMG:  Solving for p_rgh, Initial residual = 0.000859146, Final residual = 6.3166e-06, No Iterations 6
porous time step continuity errors : sum local = 3.26323e-05, global = 5.49291e-06, cumulative = 0.000866947
air    GAMG:  Solving for p_rgh, Initial residual = 0.0296909, Final residual = 0.000276035, No Iterations 4
air    time step continuity errors : sum local = 0.000962744, global = -0.000108908, cumulative = 0.0756012
air    DILUPBiCGStab:  Solving for epsilon, Initial residual = 0.00811354, Final residual = 4.49863e-05, No Iterations 1
air    DILUPBiCGStab:  Solving for k, Initial residual = 0.0190207, Final residual = 9.09232e-05, No Iterations 1
       ExecutionTime = 166.38 s  ClockTime = 166 s
       
       Time = 17s
       
porous DILUPBiCGStab:  Solving for Ux, Initial residual = 0.0169266, Final residual = 9.99387e-05, No Iterations 1
porous DILUPBiCGStab:  Solving for Uy, Initial residual = 0.0281308, Final residual = 0.000138825, No Iterations 1
porous DILUPBiCGStab:  Solving for Uz, Initial residual = 0.0165165, Final residual = 0.000183976, No Iterations 1
air    DILUPBiCGStab:  Solving for Ux, Initial residual = 0.00446664, Final residual = 2.16909e-05, No Iterations 1
air    DILUPBiCGStab:  Solving for Uy, Initial residual = 0.00481801, Final residual = 2.25232e-05, No Iterations 1
air    DILUPBiCGStab:  Solving for Uz, Initial residual = 0.00588944, Final residual = 2.74815e-05, No Iterations 1
porous DILUPBiCGStab:  Solving for e, Initial residual = 0.0179606, Final residual = 0.0001119, No Iterations 1
air    DILUPBiCGStab:  Solving for e, Initial residual = 0.0141606, Final residual = 7.19553e-05, No Iterations 1
porous GAMG:  Solving for p_rgh, Initial residual = 0.000817966, Final residual = 5.92454e-06, No Iterations 6
porous time step continuity errors : sum local = 2.98604e-05, global = 5.24099e-06, cumulative = 0.000872188
air    GAMG:  Solving for p_rgh, Initial residual = 0.0261443, Final residual = 0.000177086, No Iterations 8
air    time step continuity errors : sum local = 0.000600873, global = 0.000120105, cumulative = 0.0757213
air    DILUPBiCGStab:  Solving for epsilon, Initial residual = 0.00809324, Final residual = 4.45463e-05, No Iterations 1
air    DILUPBiCGStab:  Solving for k, Initial residual = 0.0184311, Final residual = 8.56375e-05, No Iterations 1
       ExecutionTime = 168.572 s  ClockTime = 169 s
       
       Time = 18s
       
porous DILUPBiCGStab:  Solving for Ux, Initial residual = 0.0158371, Final residual = 9.05648e-05, No Iterations 1
porous DILUPBiCGStab:  Solving for Uy, Initial residual = 0.0263939, Final residual = 0.000127869, No Iterations 1
porous DILUPBiCGStab:  Solving for Uz, Initial residual = 0.0152847, Final residual = 0.00016424, No Iterations 1
air    DILUPBiCGStab:  Solving for Ux, Initial residual = 0.0042646, Final residual = 2.0853e-05, No Iterations 1
air    DILUPBiCGStab:  Solving for Uy, Initial residual = 0.0045958, Final residual = 2.16321e-05, No Iterations 1
air    DILUPBiCGStab:  Solving for Uz, Initial residual = 0.00545532, Final residual = 2.53703e-05, No Iterations 1
porous DILUPBiCGStab:  Solving for e, Initial residual = 0.0170043, Final residual = 0.000102773, No Iterations 1
air    DILUPBiCGStab:  Solving for e, Initial residual = 0.0136908, Final residual = 6.95596e-05, No Iterations 1
porous GAMG:  Solving for p_rgh, Initial residual = 0.000763287, Final residual = 5.90822e-06, No Iterations 6
porous time step continuity errors : sum local = 2.91299e-05, global = 5.15671e-06, cumulative = 0.000877344
air    GAMG:  Solving for p_rgh, Initial residual = 0.0243017, Final residual = 0.000148605, No Iterations 4
air    time step continuity errors : sum local = 0.000488669, global = 0.000121989, cumulative = 0.0758433
air    DILUPBiCGStab:  Solving for epsilon, Initial residual = 0.00802425, Final residual = 4.39496e-05, No Iterations 1
air    DILUPBiCGStab:  Solving for k, Initial residual = 0.0178233, Final residual = 8.00499e-05, No Iterations 1
       ExecutionTime = 170.454 s  ClockTime = 171 s
       
       Time = 19s
       
porous DILUPBiCGStab:  Solving for Ux, Initial residual = 0.0148714, Final residual = 8.24268e-05, No Iterations 1
porous DILUPBiCGStab:  Solving for Uy, Initial residual = 0.0248489, Final residual = 0.000118327, No Iterations 1
porous DILUPBiCGStab:  Solving for Uz, Initial residual = 0.0142143, Final residual = 0.000147885, No Iterations 1
air    DILUPBiCGStab:  Solving for Ux, Initial residual = 0.00411664, Final residual = 2.01035e-05, No Iterations 1
air    DILUPBiCGStab:  Solving for Uy, Initial residual = 0.00443794, Final residual = 2.08554e-05, No Iterations 1
air    DILUPBiCGStab:  Solving for Uz, Initial residual = 0.00518529, Final residual = 2.38964e-05, No Iterations 1
porous DILUPBiCGStab:  Solving for e, Initial residual = 0.0161553, Final residual = 9.47545e-05, No Iterations 1
air    DILUPBiCGStab:  Solving for e, Initial residual = 0.0132612, Final residual = 6.7317e-05, No Iterations 1
porous GAMG:  Solving for p_rgh, Initial residual = 0.000713825, Final residual = 5.65725e-06, No Iterations 6
porous time step continuity errors : sum local = 2.72711e-05, global = 4.82853e-06, cumulative = 0.000882173
air    GAMG:  Solving for p_rgh, Initial residual = 0.0223904, Final residual = 0.000202605, No Iterations 4
air    time step continuity errors : sum local = 0.00065357, global = 8.66344e-05, cumulative = 0.07593
air    DILUPBiCGStab:  Solving for epsilon, Initial residual = 0.00793448, Final residual = 4.32377e-05, No Iterations 1
air    DILUPBiCGStab:  Solving for k, Initial residual = 0.0172322, Final residual = 7.53585e-05, No Iterations 1
       ExecutionTime = 172.316 s  ClockTime = 173 s
       
       Time = 20s
       
porous DILUPBiCGStab:  Solving for Ux, Initial residual = 0.0139928, Final residual = 7.52338e-05, No Iterations 1
porous DILUPBiCGStab:  Solving for Uy, Initial residual = 0.0234628, Final residual = 0.000109913, No Iterations 1
porous DILUPBiCGStab:  Solving for Uz, Initial residual = 0.0132766, Final residual = 0.000133592, No Iterations 1
air    DILUPBiCGStab:  Solving for Ux, Initial residual = 0.00401418, Final residual = 1.94211e-05, No Iterations 1
air    DILUPBiCGStab:  Solving for Uy, Initial residual = 0.00433601, Final residual = 2.01663e-05, No Iterations 1
air    DILUPBiCGStab:  Solving for Uz, Initial residual = 0.00504834, Final residual = 2.27987e-05, No Iterations 1
porous DILUPBiCGStab:  Solving for e, Initial residual = 0.0153914, Final residual = 8.72418e-05, No Iterations 1
air    DILUPBiCGStab:  Solving for e, Initial residual = 0.0128504, Final residual = 6.52351e-05, No Iterations 1
porous GAMG:  Solving for p_rgh, Initial residual = 0.000673775, Final residual = 5.24281e-06, No Iterations 6
porous time step continuity errors : sum local = 2.47431e-05, global = 4.39986e-06, cumulative = 0.000886573
air    GAMG:  Solving for p_rgh, Initial residual = 0.0207183, Final residual = 0.000150871, No Iterations 5
air    time step continuity errors : sum local = 0.000480286, global = -7.74327e-05, cumulative = 0.0758525
air    DILUPBiCGStab:  Solving for epsilon, Initial residual = 0.00786715, Final residual = 4.2564e-05, No Iterations 1
air    DILUPBiCGStab:  Solving for k, Initial residual = 0.0166592, Final residual = 7.14355e-05, No Iterations 1
       ExecutionTime = 174.232 s  ClockTime = 175 s
       
       Time = 21s
       
porous DILUPBiCGStab:  Solving for Ux, Initial residual = 0.0131827, Final residual = 6.88384e-05, No Iterations 1
porous DILUPBiCGStab:  Solving for Uy, Initial residual = 0.0222131, Final residual = 0.000102467, No Iterations 1
porous DILUPBiCGStab:  Solving for Uz, Initial residual = 0.0124471, Final residual = 0.000121124, No Iterations 1
air    DILUPBiCGStab:  Solving for Ux, Initial residual = 0.0039329, Final residual = 1.8817e-05, No Iterations 1
air    DILUPBiCGStab:  Solving for Uy, Initial residual = 0.00425962, Final residual = 1.95665e-05, No Iterations 1
air    DILUPBiCGStab:  Solving for Uz, Initial residual = 0.00495941, Final residual = 2.18748e-05, No Iterations 1
porous DILUPBiCGStab:  Solving for e, Initial residual = 0.0147003, Final residual = 8.09027e-05, No Iterations 1
air    DILUPBiCGStab:  Solving for e, Initial residual = 0.0124513, Final residual = 6.31198e-05, No Iterations 1
porous GAMG:  Solving for p_rgh, Initial residual = 0.000640108, Final residual = 4.88232e-06, No Iterations 6
porous time step continuity errors : sum local = 2.25991e-05, global = 4.06278e-06, cumulative = 0.000890635
air    GAMG:  Solving for p_rgh, Initial residual = 0.0191253, Final residual = 9.26628e-05, No Iterations 3
air    time step continuity errors : sum local = 0.000291619, global = -2.66231e-05, cumulative = 0.0758259
air    DILUPBiCGStab:  Solving for epsilon, Initial residual = 0.00777024, Final residual = 4.1872e-05, No Iterations 1
air    DILUPBiCGStab:  Solving for k, Initial residual = 0.0161217, Final residual = 6.80912e-05, No Iterations 1
       ExecutionTime = 176.105 s  ClockTime = 177 s
       
       Time = 22s
       
porous DILUPBiCGStab:  Solving for Ux, Initial residual = 0.0124457, Final residual = 6.31801e-05, No Iterations 1
porous DILUPBiCGStab:  Solving for Uy, Initial residual = 0.0210807, Final residual = 9.58319e-05, No Iterations 1
porous DILUPBiCGStab:  Solving for Uz, Initial residual = 0.011708, Final residual = 0.000110176, No Iterations 1
air    DILUPBiCGStab:  Solving for Ux, Initial residual = 0.00385026, Final residual = 1.82696e-05, No Iterations 1
air    DILUPBiCGStab:  Solving for Uy, Initial residual = 0.00417626, Final residual = 1.90055e-05, No Iterations 1
air    DILUPBiCGStab:  Solving for Uz, Initial residual = 0.00485155, Final residual = 2.09665e-05, No Iterations 1
porous DILUPBiCGStab:  Solving for e, Initial residual = 0.0140808, Final residual = 7.57849e-05, No Iterations 1
air    DILUPBiCGStab:  Solving for e, Initial residual = 0.0120646, Final residual = 6.09545e-05, No Iterations 1
porous GAMG:  Solving for p_rgh, Initial residual = 0.000608087, Final residual = 4.62505e-06, No Iterations 6
porous time step continuity errors : sum local = 2.10175e-05, global = 3.80438e-06, cumulative = 0.00089444
air    GAMG:  Solving for p_rgh, Initial residual = 0.0178756, Final residual = 0.000155798, No Iterations 4
air    time step continuity errors : sum local = 0.00048432, global = 0.00015552, cumulative = 0.0759814
air    DILUPBiCGStab:  Solving for epsilon, Initial residual = 0.00763401, Final residual = 4.10387e-05, No Iterations 1
air    DILUPBiCGStab:  Solving for k, Initial residual = 0.0156476, Final residual = 6.52487e-05, No Iterations 1
       ExecutionTime = 178.111 s  ClockTime = 179 s
       
       Time = 23s
       
porous DILUPBiCGStab:  Solving for Ux, Initial residual = 0.0117809, Final residual = 5.83373e-05, No Iterations 1
porous DILUPBiCGStab:  Solving for Uy, Initial residual = 0.0200502, Final residual = 8.99309e-05, No Iterations 1
porous DILUPBiCGStab:  Solving for Uz, Initial residual = 0.011046, Final residual = 0.000100613, No Iterations 1
air    DILUPBiCGStab:  Solving for Ux, Initial residual = 0.00376125, Final residual = 1.77357e-05, No Iterations 1
air    DILUPBiCGStab:  Solving for Uy, Initial residual = 0.00408401, Final residual = 1.84517e-05, No Iterations 1
air    DILUPBiCGStab:  Solving for Uz, Initial residual = 0.00471471, Final residual = 2.00452e-05, No Iterations 1
porous DILUPBiCGStab:  Solving for e, Initial residual = 0.0135135, Final residual = 7.09767e-05, No Iterations 1
air    DILUPBiCGStab:  Solving for e, Initial residual = 0.0116954, Final residual = 5.88991e-05, No Iterations 1
porous GAMG:  Solving for p_rgh, Initial residual = 0.000578722, Final residual = 4.40065e-06, No Iterations 6
porous time step continuity errors : sum local = 1.96561e-05, global = 3.58099e-06, cumulative = 0.000898021
air    GAMG:  Solving for p_rgh, Initial residual = 0.0169033, Final residual = 0.000126594, No Iterations 4
air    time step continuity errors : sum local = 0.000388665, global = 0.000130194, cumulative = 0.0761116
air    DILUPBiCGStab:  Solving for epsilon, Initial residual = 0.00746845, Final residual = 4.0148e-05, No Iterations 1
air    DILUPBiCGStab:  Solving for k, Initial residual = 0.0151824, Final residual = 6.27568e-05, No Iterations 1
       ExecutionTime = 179.859 s  ClockTime = 181 s
       
       Time = 24s
       
porous DILUPBiCGStab:  Solving for Ux, Initial residual = 0.0111771, Final residual = 5.40884e-05, No Iterations 1
porous DILUPBiCGStab:  Solving for Uy, Initial residual = 0.0191082, Final residual = 8.46243e-05, No Iterations 1
porous DILUPBiCGStab:  Solving for Uz, Initial residual = 0.0104502, Final residual = 9.22339e-05, No Iterations 1
air    DILUPBiCGStab:  Solving for Ux, Initial residual = 0.00368042, Final residual = 1.72422e-05, No Iterations 1
air    DILUPBiCGStab:  Solving for Uy, Initial residual = 0.00399851, Final residual = 1.79347e-05, No Iterations 1
air    DILUPBiCGStab:  Solving for Uz, Initial residual = 0.00458236, Final residual = 1.92102e-05, No Iterations 1
porous DILUPBiCGStab:  Solving for e, Initial residual = 0.0129924, Final residual = 6.6516e-05, No Iterations 1
air    DILUPBiCGStab:  Solving for e, Initial residual = 0.0113521, Final residual = 5.69381e-05, No Iterations 1
porous GAMG:  Solving for p_rgh, Initial residual = 0.000553028, Final residual = 4.17484e-06, No Iterations 6
porous time step continuity errors : sum local = 1.83622e-05, global = 3.33198e-06, cumulative = 0.000901353
air    GAMG:  Solving for p_rgh, Initial residual = 0.0160486, Final residual = 0.000120086, No Iterations 3
air    time step continuity errors : sum local = 0.000364417, global = -5.20713e-05, cumulative = 0.0760595
air    DILUPBiCGStab:  Solving for epsilon, Initial residual = 0.00730292, Final residual = 3.91626e-05, No Iterations 1
air    DILUPBiCGStab:  Solving for k, Initial residual = 0.0147293, Final residual = 6.0424e-05, No Iterations 1
       ExecutionTime = 181.781 s  ClockTime = 183 s
       
       Time = 25s
       
porous DILUPBiCGStab:  Solving for Ux, Initial residual = 0.0106258, Final residual = 5.03244e-05, No Iterations 1
porous DILUPBiCGStab:  Solving for Uy, Initial residual = 0.0182439, Final residual = 7.98128e-05, No Iterations 1
porous DILUPBiCGStab:  Solving for Uz, Initial residual = 0.00991162, Final residual = 8.50226e-05, No Iterations 1
air    DILUPBiCGStab:  Solving for Ux, Initial residual = 0.00361127, Final residual = 1.67949e-05, No Iterations 1
air    DILUPBiCGStab:  Solving for Uy, Initial residual = 0.0039256, Final residual = 1.74661e-05, No Iterations 1
air    DILUPBiCGStab:  Solving for Uz, Initial residual = 0.00447491, Final residual = 1.84904e-05, No Iterations 1
porous DILUPBiCGStab:  Solving for e, Initial residual = 0.0125163, Final residual = 6.27082e-05, No Iterations 1
air    DILUPBiCGStab:  Solving for e, Initial residual = 0.011022, Final residual = 5.50462e-05, No Iterations 1
porous GAMG:  Solving for p_rgh, Initial residual = 0.000531448, Final residual = 3.94931e-06, No Iterations 6
porous time step continuity errors : sum local = 1.70981e-05, global = 3.10859e-06, cumulative = 0.000904461
air    GAMG:  Solving for p_rgh, Initial residual = 0.0152404, Final residual = 7.72295e-05, No Iterations 3
air    time step continuity errors : sum local = 0.000232047, global = -3.49123e-05, cumulative = 0.0760246
air    DILUPBiCGStab:  Solving for epsilon, Initial residual = 0.00715292, Final residual = 3.81902e-05, No Iterations 1
air    DILUPBiCGStab:  Solving for k, Initial residual = 0.0142898, Final residual = 5.82059e-05, No Iterations 1
       ExecutionTime = 183.654 s  ClockTime = 183 s
       
       Time = 26s
       
porous DILUPBiCGStab:  Solving for Ux, Initial residual = 0.0101193, Final residual = 4.70055e-05, No Iterations 1
porous DILUPBiCGStab:  Solving for Uy, Initial residual = 0.017448, Final residual = 7.54359e-05, No Iterations 1
porous DILUPBiCGStab:  Solving for Uz, Initial residual = 0.0094223, Final residual = 7.88517e-05, No Iterations 1
air    DILUPBiCGStab:  Solving for Ux, Initial residual = 0.00354762, Final residual = 1.63745e-05, No Iterations 1
air    DILUPBiCGStab:  Solving for Uy, Initial residual = 0.00385985, Final residual = 1.70303e-05, No Iterations 1
air    DILUPBiCGStab:  Solving for Uz, Initial residual = 0.00438416, Final residual = 1.78188e-05, No Iterations 1
porous DILUPBiCGStab:  Solving for e, Initial residual = 0.0120816, Final residual = 5.9363e-05, No Iterations 1
air    DILUPBiCGStab:  Solving for e, Initial residual = 0.010709, Final residual = 5.31784e-05, No Iterations 1
porous GAMG:  Solving for p_rgh, Initial residual = 0.000513946, Final residual = 3.74855e-06, No Iterations 6
porous time step continuity errors : sum local = 1.60028e-05, global = 2.90959e-06, cumulative = 0.000907371
air    GAMG:  Solving for p_rgh, Initial residual = 0.0145428, Final residual = 8.35604e-05, No Iterations 3
air    time step continuity errors : sum local = 0.000249001, global = -3.0589e-05, cumulative = 0.075994
air    DILUPBiCGStab:  Solving for epsilon, Initial residual = 0.0070043, Final residual = 3.73268e-05, No Iterations 1
air    DILUPBiCGStab:  Solving for k, Initial residual = 0.0138681, Final residual = 5.60533e-05, No Iterations 1
       ExecutionTime = 185.56 s  ClockTime = 185 s
       
       Time = 27s
       
porous DILUPBiCGStab:  Solving for Ux, Initial residual = 0.00967603, Final residual = 4.40121e-05, No Iterations 1
porous DILUPBiCGStab:  Solving for Uy, Initial residual = 0.0167127, Final residual = 7.14393e-05, No Iterations 1
porous DILUPBiCGStab:  Solving for Uz, Initial residual = 0.00897593, Final residual = 7.33968e-05, No Iterations 1
air    DILUPBiCGStab:  Solving for Ux, Initial residual = 0.00348745, Final residual = 1.59835e-05, No Iterations 1
air    DILUPBiCGStab:  Solving for Uy, Initial residual = 0.00379856, Final residual = 1.66242e-05, No Iterations 1
air    DILUPBiCGStab:  Solving for Uz, Initial residual = 0.00429835, Final residual = 1.72045e-05, No Iterations 1
porous DILUPBiCGStab:  Solving for e, Initial residual = 0.0116775, Final residual = 5.62932e-05, No Iterations 1
air    DILUPBiCGStab:  Solving for e, Initial residual = 0.0104084, Final residual = 5.13613e-05, No Iterations 1
porous GAMG:  Solving for p_rgh, Initial residual = 0.000499891, Final residual = 3.56324e-06, No Iterations 6
porous time step continuity errors : sum local = 1.50129e-05, global = 2.73293e-06, cumulative = 0.000910104
air    GAMG:  Solving for p_rgh, Initial residual = 0.0139075, Final residual = 0.000128944, No Iterations 3
air    time step continuity errors : sum local = 0.000381237, global = -5.09062e-05, cumulative = 0.0759431
air    DILUPBiCGStab:  Solving for epsilon, Initial residual = 0.00684726, Final residual = 3.65071e-05, No Iterations 1
air    DILUPBiCGStab:  Solving for k, Initial residual = 0.013464, Final residual = 5.39769e-05, No Iterations 1
       ExecutionTime = 187.523 s  ClockTime = 187 s
       
       Time = 28s
       
porous DILUPBiCGStab:  Solving for Ux, Initial residual = 0.00927944, Final residual = 4.1406e-05, No Iterations 1
porous DILUPBiCGStab:  Solving for Uy, Initial residual = 0.0160316, Final residual = 6.78221e-05, No Iterations 1
porous DILUPBiCGStab:  Solving for Uz, Initial residual = 0.00856728, Final residual = 6.85352e-05, No Iterations 1
air    DILUPBiCGStab:  Solving for Ux, Initial residual = 0.00342962, Final residual = 1.56148e-05, No Iterations 1
air    DILUPBiCGStab:  Solving for Uy, Initial residual = 0.00373895, Final residual = 1.62379e-05, No Iterations 1
air    DILUPBiCGStab:  Solving for Uz, Initial residual = 0.0042136, Final residual = 1.66412e-05, No Iterations 1
porous DILUPBiCGStab:  Solving for e, Initial residual = 0.0113006, Final residual = 5.3358e-05, No Iterations 1
air    DILUPBiCGStab:  Solving for e, Initial residual = 0.0101198, Final residual = 4.96191e-05, No Iterations 1
porous GAMG:  Solving for p_rgh, Initial residual = 0.00048533, Final residual = 3.39225e-06, No Iterations 6
porous time step continuity errors : sum local = 1.40972e-05, global = 2.55258e-06, cumulative = 0.000912656
air    GAMG:  Solving for p_rgh, Initial residual = 0.0133686, Final residual = 9.86714e-05, No Iterations 4
air    time step continuity errors : sum local = 0.000289537, global = 6.68664e-05, cumulative = 0.07601
air    DILUPBiCGStab:  Solving for epsilon, Initial residual = 0.00667831, Final residual = 3.57265e-05, No Iterations 1
air    DILUPBiCGStab:  Solving for k, Initial residual = 0.013085, Final residual = 5.19544e-05, No Iterations 1
       ExecutionTime = 189.621 s  ClockTime = 189 s
       
       Time = 29s
       
porous DILUPBiCGStab:  Solving for Ux, Initial residual = 0.00891108, Final residual = 3.92591e-05, No Iterations 1
porous DILUPBiCGStab:  Solving for Uy, Initial residual = 0.0153988, Final residual = 6.45108e-05, No Iterations 1
porous DILUPBiCGStab:  Solving for Uz, Initial residual = 0.00819188, Final residual = 6.41565e-05, No Iterations 1
air    DILUPBiCGStab:  Solving for Ux, Initial residual = 0.00337271, Final residual = 1.52633e-05, No Iterations 1
air    DILUPBiCGStab:  Solving for Uy, Initial residual = 0.00367893, Final residual = 1.58664e-05, No Iterations 1
air    DILUPBiCGStab:  Solving for Uz, Initial residual = 0.00412979, Final residual = 1.61034e-05, No Iterations 1
porous DILUPBiCGStab:  Solving for e, Initial residual = 0.0109538, Final residual = 5.08169e-05, No Iterations 1
air    DILUPBiCGStab:  Solving for e, Initial residual = 0.00984846, Final residual = 4.80301e-05, No Iterations 1
porous GAMG:  Solving for p_rgh, Initial residual = 0.000471001, Final residual = 3.22151e-06, No Iterations 6
porous time step continuity errors : sum local = 1.32361e-05, global = 2.3722e-06, cumulative = 0.000915029
air    GAMG:  Solving for p_rgh, Initial residual = 0.0129394, Final residual = 7.79375e-05, No Iterations 4
air    time step continuity errors : sum local = 0.000227104, global = 5.56371e-05, cumulative = 0.0760656
air    DILUPBiCGStab:  Solving for epsilon, Initial residual = 0.00650215, Final residual = 3.49714e-05, No Iterations 1
air    DILUPBiCGStab:  Solving for k, Initial residual = 0.0127359, Final residual = 5.00748e-05, No Iterations 1
       ExecutionTime = 191.636 s  ClockTime = 192 s
       
       Time = 30s
       
porous DILUPBiCGStab:  Solving for Ux, Initial residual = 0.00856812, Final residual = 3.73325e-05, No Iterations 1
porous DILUPBiCGStab:  Solving for Uy, Initial residual = 0.0148093, Final residual = 6.14436e-05, No Iterations 1
porous DILUPBiCGStab:  Solving for Uz, Initial residual = 0.00784593, Final residual = 6.02763e-05, No Iterations 1
air    DILUPBiCGStab:  Solving for Ux, Initial residual = 0.00331985, Final residual = 1.4935e-05, No Iterations 1
air    DILUPBiCGStab:  Solving for Uy, Initial residual = 0.00362239, Final residual = 1.55162e-05, No Iterations 1
air    DILUPBiCGStab:  Solving for Uz, Initial residual = 0.00405104, Final residual = 1.56238e-05, No Iterations 1
porous DILUPBiCGStab:  Solving for e, Initial residual = 0.0106317, Final residual = 4.85421e-05, No Iterations 1
air    DILUPBiCGStab:  Solving for e, Initial residual = 0.00958825, Final residual = 4.65298e-05, No Iterations 1
porous GAMG:  Solving for p_rgh, Initial residual = 0.0004569, Final residual = 3.06583e-06, No Iterations 6
porous time step continuity errors : sum local = 1.24451e-05, global = 2.22159e-06, cumulative = 0.00091725
air    GAMG:  Solving for p_rgh, Initial residual = 0.0125242, Final residual = 0.00010046, No Iterations 3
air    time step continuity errors : sum local = 0.000290783, global = -3.74797e-05, cumulative = 0.0760282
air    DILUPBiCGStab:  Solving for epsilon, Initial residual = 0.00633596, Final residual = 3.42159e-05, No Iterations 1
air    DILUPBiCGStab:  Solving for k, Initial residual = 0.0123999, Final residual = 4.84079e-05, No Iterations 1
       ExecutionTime = 193.602 s  ClockTime = 194 s
       
       Time = 31s
       
porous DILUPBiCGStab:  Solving for Ux, Initial residual = 0.00824837, Final residual = 3.55789e-05, No Iterations 1
porous DILUPBiCGStab:  Solving for Uy, Initial residual = 0.0142589, Final residual = 5.86039e-05, No Iterations 1
porous DILUPBiCGStab:  Solving for Uz, Initial residual = 0.00752624, Final residual = 5.67728e-05, No Iterations 1
air    DILUPBiCGStab:  Solving for Ux, Initial residual = 0.00327068, Final residual = 1.46264e-05, No Iterations 1
air    DILUPBiCGStab:  Solving for Uy, Initial residual = 0.00356995, Final residual = 1.51878e-05, No Iterations 1
air    DILUPBiCGStab:  Solving for Uz, Initial residual = 0.00397928, Final residual = 1.52014e-05, No Iterations 1
porous DILUPBiCGStab:  Solving for e, Initial residual = 0.0103295, Final residual = 4.63619e-05, No Iterations 1
air    DILUPBiCGStab:  Solving for e, Initial residual = 0.00934362, Final residual = 4.51113e-05, No Iterations 1
porous GAMG:  Solving for p_rgh, Initial residual = 0.000443476, Final residual = 2.91831e-06, No Iterations 6
porous time step continuity errors : sum local = 1.17171e-05, global = 2.07178e-06, cumulative = 0.000919322
air    GAMG:  Solving for p_rgh, Initial residual = 0.0121664, Final residual = 0.000102429, No Iterations 3
air    time step continuity errors : sum local = 0.000294716, global = -4.50426e-05, cumulative = 0.0759831
air    DILUPBiCGStab:  Solving for epsilon, Initial residual = 0.00618816, Final residual = 3.35172e-05, No Iterations 1
air    DILUPBiCGStab:  Solving for k, Initial residual = 0.0120761, Final residual = 4.68724e-05, No Iterations 1
       ExecutionTime = 195.258 s  ClockTime = 195 s
       
       Time = 32s
       
porous DILUPBiCGStab:  Solving for Ux, Initial residual = 0.00794861, Final residual = 3.39456e-05, No Iterations 1
porous DILUPBiCGStab:  Solving for Uy, Initial residual = 0.0137438, Final residual = 5.59847e-05, No Iterations 1
porous DILUPBiCGStab:  Solving for Uz, Initial residual = 0.00722992, Final residual = 5.35559e-05, No Iterations 1
air    DILUPBiCGStab:  Solving for Ux, Initial residual = 0.00322207, Final residual = 1.43273e-05, No Iterations 1
air    DILUPBiCGStab:  Solving for Uy, Initial residual = 0.00351861, Final residual = 1.48707e-05, No Iterations 1
air    DILUPBiCGStab:  Solving for Uz, Initial residual = 0.0039122, Final residual = 1.48003e-05, No Iterations 1
porous DILUPBiCGStab:  Solving for e, Initial residual = 0.0100448, Final residual = 4.43118e-05, No Iterations 1
air    DILUPBiCGStab:  Solving for e, Initial residual = 0.00911915, Final residual = 4.37675e-05, No Iterations 1
porous GAMG:  Solving for p_rgh, Initial residual = 0.000430327, Final residual = 2.77476e-06, No Iterations 6
porous time step continuity errors : sum local = 1.1009e-05, global = 1.92308e-06, cumulative = 0.000921245
air    GAMG:  Solving for p_rgh, Initial residual = 0.0118035, Final residual = 0.000111472, No Iterations 3
air    time step continuity errors : sum local = 0.000319058, global = -4.98331e-05, cumulative = 0.0759333
air    DILUPBiCGStab:  Solving for epsilon, Initial residual = 0.00604586, Final residual = 3.29023e-05, No Iterations 1
air    DILUPBiCGStab:  Solving for k, Initial residual = 0.0117632, Final residual = 4.5408e-05, No Iterations 1
       ExecutionTime = 197.193 s  ClockTime = 197 s
       
       Time = 33s
       
porous DILUPBiCGStab:  Solving for Ux, Initial residual = 0.0076671, Final residual = 3.24206e-05, No Iterations 1
porous DILUPBiCGStab:  Solving for Uy, Initial residual = 0.0132609, Final residual = 5.35468e-05, No Iterations 1
porous DILUPBiCGStab:  Solving for Uz, Initial residual = 0.00695456, Final residual = 5.0606e-05, No Iterations 1
air    DILUPBiCGStab:  Solving for Ux, Initial residual = 0.00317525, Final residual = 1.40406e-05, No Iterations 1
air    DILUPBiCGStab:  Solving for Uy, Initial residual = 0.00346904, Final residual = 1.45676e-05, No Iterations 1
air    DILUPBiCGStab:  Solving for Uz, Initial residual = 0.00384755, Final residual = 1.44312e-05, No Iterations 1
porous DILUPBiCGStab:  Solving for e, Initial residual = 0.00978213, Final residual = 4.24988e-05, No Iterations 1
air    DILUPBiCGStab:  Solving for e, Initial residual = 0.00893663, Final residual = 4.24873e-05, No Iterations 1
porous GAMG:  Solving for p_rgh, Initial residual = 0.000420155, Final residual = 2.63921e-06, No Iterations 6
porous time step continuity errors : sum local = 1.03612e-05, global = 1.78178e-06, cumulative = 0.000923027
air    GAMG:  Solving for p_rgh, Initial residual = 0.0114975, Final residual = 6.90057e-05, No Iterations 4
air    time step continuity errors : sum local = 0.000196536, global = 4.08625e-05, cumulative = 0.0759741
air    DILUPBiCGStab:  Solving for epsilon, Initial residual = 0.00590174, Final residual = 3.23184e-05, No Iterations 1
air    DILUPBiCGStab:  Solving for k, Initial residual = 0.0114659, Final residual = 4.39853e-05, No Iterations 1
       ExecutionTime = 199.066 s  ClockTime = 199 s
       
       Time = 34s
       
porous DILUPBiCGStab:  Solving for Ux, Initial residual = 0.00740214, Final residual = 3.09903e-05, No Iterations 1
porous DILUPBiCGStab:  Solving for Uy, Initial residual = 0.0128073, Final residual = 5.12873e-05, No Iterations 1
porous DILUPBiCGStab:  Solving for Uz, Initial residual = 0.00669804, Final residual = 4.79504e-05, No Iterations 1
air    DILUPBiCGStab:  Solving for Ux, Initial residual = 0.00313038, Final residual = 1.37677e-05, No Iterations 1
air    DILUPBiCGStab:  Solving for Uy, Initial residual = 0.00342089, Final residual = 1.42779e-05, No Iterations 1
air    DILUPBiCGStab:  Solving for Uz, Initial residual = 0.00378469, Final residual = 1.40877e-05, No Iterations 1
porous DILUPBiCGStab:  Solving for e, Initial residual = 0.00953352, Final residual = 4.08646e-05, No Iterations 1
air    DILUPBiCGStab:  Solving for e, Initial residual = 0.0087773, Final residual = 4.12682e-05, No Iterations 1
porous GAMG:  Solving for p_rgh, Initial residual = 0.000411186, Final residual = 2.50801e-06, No Iterations 6
porous time step continuity errors : sum local = 9.75428e-06, global = 1.6544e-06, cumulative = 0.000924681
air    GAMG:  Solving for p_rgh, Initial residual = 0.0112357, Final residual = 0.000100017, No Iterations 3
air    time step continuity errors : sum local = 0.000283539, global = -3.46914e-05, cumulative = 0.0759395
air    DILUPBiCGStab:  Solving for epsilon, Initial residual = 0.00575713, Final residual = 3.17538e-05, No Iterations 1
air    DILUPBiCGStab:  Solving for k, Initial residual = 0.0111849, Final residual = 4.2636e-05, No Iterations 1
       ExecutionTime = 200.949 s  ClockTime = 201 s
       
       Time = 35s
       
porous DILUPBiCGStab:  Solving for Ux, Initial residual = 0.00715209, Final residual = 2.96465e-05, No Iterations 1
porous DILUPBiCGStab:  Solving for Uy, Initial residual = 0.0123804, Final residual = 4.91832e-05, No Iterations 1
porous DILUPBiCGStab:  Solving for Uz, Initial residual = 0.00645856, Final residual = 4.54764e-05, No Iterations 1
air    DILUPBiCGStab:  Solving for Ux, Initial residual = 0.00308999, Final residual = 1.3514e-05, No Iterations 1
air    DILUPBiCGStab:  Solving for Uy, Initial residual = 0.0033768, Final residual = 1.40055e-05, No Iterations 1
air    DILUPBiCGStab:  Solving for Uz, Initial residual = 0.00372483, Final residual = 1.37751e-05, No Iterations 1
porous DILUPBiCGStab:  Solving for e, Initial residual = 0.00929912, Final residual = 3.92252e-05, No Iterations 1
air    DILUPBiCGStab:  Solving for e, Initial residual = 0.00863821, Final residual = 4.00998e-05, No Iterations 1
porous GAMG:  Solving for p_rgh, Initial residual = 0.000401996, Final residual = 2.38389e-06, No Iterations 6
porous time step continuity errors : sum local = 9.18445e-06, global = 1.51883e-06, cumulative = 0.0009262
air    GAMG:  Solving for p_rgh, Initial residual = 0.0110063, Final residual = 0.000107132, No Iterations 3
air    time step continuity errors : sum local = 0.000302311, global = -4.45073e-05, cumulative = 0.0758949
air    DILUPBiCGStab:  Solving for epsilon, Initial residual = 0.00561959, Final residual = 3.1153e-05, No Iterations 1
air    DILUPBiCGStab:  Solving for k, Initial residual = 0.0109149, Final residual = 4.1362e-05, No Iterations 1
       ExecutionTime = 202.842 s  ClockTime = 203 s
       
       Time = 36s
       
porous DILUPBiCGStab:  Solving for Ux, Initial residual = 0.00691586, Final residual = 2.83886e-05, No Iterations 1
porous DILUPBiCGStab:  Solving for Uy, Initial residual = 0.011978, Final residual = 4.7216e-05, No Iterations 1
porous DILUPBiCGStab:  Solving for Uz, Initial residual = 0.00623453, Final residual = 4.32383e-05, No Iterations 1
air    DILUPBiCGStab:  Solving for Ux, Initial residual = 0.00305093, Final residual = 1.32677e-05, No Iterations 1
air    DILUPBiCGStab:  Solving for Uy, Initial residual = 0.003334, Final residual = 1.37414e-05, No Iterations 1
air    DILUPBiCGStab:  Solving for Uz, Initial residual = 0.00366745, Final residual = 1.34729e-05, No Iterations 1
porous DILUPBiCGStab:  Solving for e, Initial residual = 0.0090776, Final residual = 3.77426e-05, No Iterations 1
air    DILUPBiCGStab:  Solving for e, Initial residual = 0.00851552, Final residual = 3.89902e-05, No Iterations 1
porous GAMG:  Solving for p_rgh, Initial residual = 0.000393182, Final residual = 2.26156e-06, No Iterations 6
porous time step continuity errors : sum local = 8.6376e-06, global = 1.40748e-06, cumulative = 0.000927608
air    GAMG:  Solving for p_rgh, Initial residual = 0.0107897, Final residual = 0.000107605, No Iterations 3
air    time step continuity errors : sum local = 0.000302439, global = -4.79181e-05, cumulative = 0.075847
air    DILUPBiCGStab:  Solving for epsilon, Initial residual = 0.00548612, Final residual = 3.0563e-05, No Iterations 1
air    DILUPBiCGStab:  Solving for k, Initial residual = 0.0106537, Final residual = 4.01439e-05, No Iterations 1
       ExecutionTime = 204.576 s  ClockTime = 205 s
       
       Time = 37s
       
porous DILUPBiCGStab:  Solving for Ux, Initial residual = 0.00669246, Final residual = 2.72088e-05, No Iterations 1
porous DILUPBiCGStab:  Solving for Uy, Initial residual = 0.011598, Final residual = 4.53669e-05, No Iterations 1
porous DILUPBiCGStab:  Solving for Uz, Initial residual = 0.00602458, Final residual = 4.12165e-05, No Iterations 1
air    DILUPBiCGStab:  Solving for Ux, Initial residual = 0.00301316, Final residual = 1.30228e-05, No Iterations 1
air    DILUPBiCGStab:  Solving for Uy, Initial residual = 0.00329274, Final residual = 1.34799e-05, No Iterations 1
air    DILUPBiCGStab:  Solving for Uz, Initial residual = 0.00361277, Final residual = 1.31856e-05, No Iterations 1
porous DILUPBiCGStab:  Solving for e, Initial residual = 0.00887131, Final residual = 3.64195e-05, No Iterations 1
air    DILUPBiCGStab:  Solving for e, Initial residual = 0.00840273, Final residual = 3.7929e-05, No Iterations 1
porous GAMG:  Solving for p_rgh, Initial residual = 0.000385417, Final residual = 2.14493e-06, No Iterations 6
porous time step continuity errors : sum local = 8.12957e-06, global = 1.28672e-06, cumulative = 0.000928894
air    GAMG:  Solving for p_rgh, Initial residual = 0.010539, Final residual = 0.000102935, No Iterations 3
air    time step continuity errors : sum local = 0.000288259, global = -4.52084e-05, cumulative = 0.0758018
air    DILUPBiCGStab:  Solving for epsilon, Initial residual = 0.00535783, Final residual = 2.99722e-05, No Iterations 1
air    DILUPBiCGStab:  Solving for k, Initial residual = 0.0104038, Final residual = 3.90037e-05, No Iterations 1
       ExecutionTime = 206.469 s  ClockTime = 207 s
       
       Time = 38s
       
porous DILUPBiCGStab:  Solving for Ux, Initial residual = 0.00648135, Final residual = 2.61012e-05, No Iterations 1
porous DILUPBiCGStab:  Solving for Uy, Initial residual = 0.0112385, Final residual = 4.36428e-05, No Iterations 1
porous DILUPBiCGStab:  Solving for Uz, Initial residual = 0.00582739, Final residual = 3.94125e-05, No Iterations 1
air    DILUPBiCGStab:  Solving for Ux, Initial residual = 0.00297733, Final residual = 1.2789e-05, No Iterations 1
air    DILUPBiCGStab:  Solving for Uy, Initial residual = 0.00325355, Final residual = 1.32312e-05, No Iterations 1
air    DILUPBiCGStab:  Solving for Uz, Initial residual = 0.00356124, Final residual = 1.29169e-05, No Iterations 1
porous DILUPBiCGStab:  Solving for e, Initial residual = 0.00867515, Final residual = 3.5158e-05, No Iterations 1
air    DILUPBiCGStab:  Solving for e, Initial residual = 0.00829571, Final residual = 3.69168e-05, No Iterations 1
porous GAMG:  Solving for p_rgh, Initial residual = 0.000378267, Final residual = 2.03423e-06, No Iterations 6
porous time step continuity errors : sum local = 7.63758e-06, global = 1.17395e-06, cumulative = 0.000930068
air    GAMG:  Solving for p_rgh, Initial residual = 0.0103325, Final residual = 9.75842e-05, No Iterations 3
air    time step continuity errors : sum local = 0.00027234, global = -4.07544e-05, cumulative = 0.0757611
air    DILUPBiCGStab:  Solving for epsilon, Initial residual = 0.00523185, Final residual = 2.93822e-05, No Iterations 1
air    DILUPBiCGStab:  Solving for k, Initial residual = 0.0101639, Final residual = 3.79528e-05, No Iterations 1
       ExecutionTime = 208.183 s  ClockTime = 209 s
       
       Time = 39s
       
porous DILUPBiCGStab:  Solving for Ux, Initial residual = 0.00628168, Final residual = 2.50922e-05, No Iterations 1
porous DILUPBiCGStab:  Solving for Uy, Initial residual = 0.0108981, Final residual = 4.20264e-05, No Iterations 1
porous DILUPBiCGStab:  Solving for Uz, Initial residual = 0.0056419, Final residual = 3.7707e-05, No Iterations 1
air    DILUPBiCGStab:  Solving for Ux, Initial residual = 0.00294357, Final residual = 1.25675e-05, No Iterations 1
air    DILUPBiCGStab:  Solving for Uy, Initial residual = 0.00321631, Final residual = 1.29963e-05, No Iterations 1
air    DILUPBiCGStab:  Solving for Uz, Initial residual = 0.00351161, Final residual = 1.26701e-05, No Iterations 1
porous DILUPBiCGStab:  Solving for e, Initial residual = 0.00848757, Final residual = 3.39142e-05, No Iterations 1
air    DILUPBiCGStab:  Solving for e, Initial residual = 0.00819248, Final residual = 3.59462e-05, No Iterations 1
porous GAMG:  Solving for p_rgh, Initial residual = 0.000370917, Final residual = 1.92423e-06, No Iterations 6
porous time step continuity errors : sum local = 7.16916e-06, global = 1.06527e-06, cumulative = 0.000931134
air    GAMG:  Solving for p_rgh, Initial residual = 0.0102066, Final residual = 9.47928e-05, No Iterations 3
air    time step continuity errors : sum local = 0.000263702, global = -3.82256e-05, cumulative = 0.0757228
air    DILUPBiCGStab:  Solving for epsilon, Initial residual = 0.0051125, Final residual = 2.88102e-05, No Iterations 1
air    DILUPBiCGStab:  Solving for k, Initial residual = 0.00993327, Final residual = 3.6968e-05, No Iterations 1
       ExecutionTime = 210.078 s  ClockTime = 211 s
       
       Time = 40s
       
porous DILUPBiCGStab:  Solving for Ux, Initial residual = 0.00608964, Final residual = 2.41334e-05, No Iterations 1
porous DILUPBiCGStab:  Solving for Uy, Initial residual = 0.0105753, Final residual = 4.05057e-05, No Iterations 1
porous DILUPBiCGStab:  Solving for Uz, Initial residual = 0.00546705, Final residual = 3.60736e-05, No Iterations 1
air    DILUPBiCGStab:  Solving for Ux, Initial residual = 0.0029114, Final residual = 1.23555e-05, No Iterations 1
air    DILUPBiCGStab:  Solving for Uy, Initial residual = 0.00318051, Final residual = 1.27697e-05, No Iterations 1
air    DILUPBiCGStab:  Solving for Uz, Initial residual = 0.00346358, Final residual = 1.24434e-05, No Iterations 1
porous DILUPBiCGStab:  Solving for e, Initial residual = 0.00831081, Final residual = 3.27899e-05, No Iterations 1
air    DILUPBiCGStab:  Solving for e, Initial residual = 0.00809263, Final residual = 3.50214e-05, No Iterations 1
porous GAMG:  Solving for p_rgh, Initial residual = 0.000363829, Final residual = 1.82026e-06, No Iterations 6
porous time step continuity errors : sum local = 6.71793e-06, global = 9.58828e-07, cumulative = 0.000932092
air    GAMG:  Solving for p_rgh, Initial residual = 0.0100679, Final residual = 9.39376e-05, No Iterations 3
air    time step continuity errors : sum local = 0.000260554, global = -3.7969e-05, cumulative = 0.0756849
air    DILUPBiCGStab:  Solving for epsilon, Initial residual = 0.00500063, Final residual = 2.82737e-05, No Iterations 1
air    DILUPBiCGStab:  Solving for k, Initial residual = 0.00971219, Final residual = 3.60174e-05, No Iterations 1
       ExecutionTime = 211.883 s  ClockTime = 213 s
       
       Time = 41s
       
porous DILUPBiCGStab:  Solving for Ux, Initial residual = 0.00591057, Final residual = 2.32166e-05, No Iterations 1
porous DILUPBiCGStab:  Solving for Uy, Initial residual = 0.0102688, Final residual = 3.90846e-05, No Iterations 1
porous DILUPBiCGStab:  Solving for Uz, Initial residual = 0.00530201, Final residual = 3.45503e-05, No Iterations 1
air    DILUPBiCGStab:  Solving for Ux, Initial residual = 0.00288056, Final residual = 1.21498e-05, No Iterations 1
air    DILUPBiCGStab:  Solving for Uy, Initial residual = 0.00314592, Final residual = 1.25499e-05, No Iterations 1
air    DILUPBiCGStab:  Solving for Uz, Initial residual = 0.00341705, Final residual = 1.22296e-05, No Iterations 1
porous DILUPBiCGStab:  Solving for e, Initial residual = 0.00814472, Final residual = 3.17799e-05, No Iterations 1
air    DILUPBiCGStab:  Solving for e, Initial residual = 0.00799564, Final residual = 3.41349e-05, No Iterations 1
porous GAMG:  Solving for p_rgh, Initial residual = 0.000357523, Final residual = 1.71453e-06, No Iterations 6
porous time step continuity errors : sum local = 6.28991e-06, global = 8.53743e-07, cumulative = 0.000932946
air    GAMG:  Solving for p_rgh, Initial residual = 0.00991368, Final residual = 9.31492e-05, No Iterations 3
air    time step continuity errors : sum local = 0.000257688, global = -3.82496e-05, cumulative = 0.0756466
air    DILUPBiCGStab:  Solving for epsilon, Initial residual = 0.0048953, Final residual = 2.77547e-05, No Iterations 1
air    DILUPBiCGStab:  Solving for k, Initial residual = 0.00949953, Final residual = 3.50872e-05, No Iterations 1
       ExecutionTime = 213.544 s  ClockTime = 213 s
       
       Time = 42s
       
porous DILUPBiCGStab:  Solving for Ux, Initial residual = 0.00574426, Final residual = 2.23485e-05, No Iterations 1
porous DILUPBiCGStab:  Solving for Uy, Initial residual = 0.00997761, Final residual = 3.77469e-05, No Iterations 1
porous DILUPBiCGStab:  Solving for Uz, Initial residual = 0.00514599, Final residual = 3.31438e-05, No Iterations 1
air    DILUPBiCGStab:  Solving for Ux, Initial residual = 0.00285082, Final residual = 1.19502e-05, No Iterations 1
air    DILUPBiCGStab:  Solving for Uy, Initial residual = 0.00311253, Final residual = 1.23369e-05, No Iterations 1
air    DILUPBiCGStab:  Solving for Uz, Initial residual = 0.00337184, Final residual = 1.20315e-05, No Iterations 1
porous DILUPBiCGStab:  Solving for e, Initial residual = 0.00798612, Final residual = 3.07654e-05, No Iterations 1
air    DILUPBiCGStab:  Solving for e, Initial residual = 0.00790098, Final residual = 3.32932e-05, No Iterations 1
porous GAMG:  Solving for p_rgh, Initial residual = 0.000351665, Final residual = 1.61351e-06, No Iterations 6
porous time step continuity errors : sum local = 5.88106e-06, global = 7.77316e-07, cumulative = 0.000933723
air    GAMG:  Solving for p_rgh, Initial residual = 0.00979399, Final residual = 9.10143e-05, No Iterations 3
air    time step continuity errors : sum local = 0.000251193, global = -3.75744e-05, cumulative = 0.075609
air    DILUPBiCGStab:  Solving for epsilon, Initial residual = 0.00479354, Final residual = 2.72454e-05, No Iterations 1
air    DILUPBiCGStab:  Solving for k, Initial residual = 0.00929387, Final residual = 3.4192e-05, No Iterations 1
       ExecutionTime = 215.498 s  ClockTime = 215 s
       
       Time = 43s
       
porous DILUPBiCGStab:  Solving for Ux, Initial residual = 0.00558567, Final residual = 2.15284e-05, No Iterations 1
porous DILUPBiCGStab:  Solving for Uy, Initial residual = 0.0097005, Final residual = 3.64775e-05, No Iterations 1
porous DILUPBiCGStab:  Solving for Uz, Initial residual = 0.00499823, Final residual = 3.18144e-05, No Iterations 1
air    DILUPBiCGStab:  Solving for Ux, Initial residual = 0.00282224, Final residual = 1.17584e-05, No Iterations 1
air    DILUPBiCGStab:  Solving for Uy, Initial residual = 0.00308029, Final residual = 1.2131e-05, No Iterations 1
air    DILUPBiCGStab:  Solving for Uz, Initial residual = 0.00332829, Final residual = 1.18431e-05, No Iterations 1
porous DILUPBiCGStab:  Solving for e, Initial residual = 0.00783361, Final residual = 2.98089e-05, No Iterations 1
air    DILUPBiCGStab:  Solving for e, Initial residual = 0.00780875, Final residual = 3.24868e-05, No Iterations 1
porous GAMG:  Solving for p_rgh, Initial residual = 0.000346041, Final residual = 1.52041e-06, No Iterations 6
porous time step continuity errors : sum local = 5.50676e-06, global = 6.82881e-07, cumulative = 0.000934406
air    GAMG:  Solving for p_rgh, Initial residual = 0.00966734, Final residual = 8.82345e-05, No Iterations 3
air    time step continuity errors : sum local = 0.000243003, global = -3.60325e-05, cumulative = 0.075573
air    DILUPBiCGStab:  Solving for epsilon, Initial residual = 0.00469678, Final residual = 2.67466e-05, No Iterations 1
air    DILUPBiCGStab:  Solving for k, Initial residual = 0.00909483, Final residual = 3.33284e-05, No Iterations 1
       ExecutionTime = 217.433 s  ClockTime = 217 s
       
       Time = 44s
       
porous DILUPBiCGStab:  Solving for Ux, Initial residual = 0.00543422, Final residual = 2.07516e-05, No Iterations 1
porous DILUPBiCGStab:  Solving for Uy, Initial residual = 0.0094365, Final residual = 3.52752e-05, No Iterations 1
porous DILUPBiCGStab:  Solving for Uz, Initial residual = 0.00485822, Final residual = 3.05534e-05, No Iterations 1
air    DILUPBiCGStab:  Solving for Ux, Initial residual = 0.00279485, Final residual = 1.15718e-05, No Iterations 1
air    DILUPBiCGStab:  Solving for Uy, Initial residual = 0.00304913, Final residual = 1.19325e-05, No Iterations 1
air    DILUPBiCGStab:  Solving for Uz, Initial residual = 0.00328716, Final residual = 1.16621e-05, No Iterations 1
porous DILUPBiCGStab:  Solving for e, Initial residual = 0.00768909, Final residual = 2.89424e-05, No Iterations 1
air    DILUPBiCGStab:  Solving for e, Initial residual = 0.00771836, Final residual = 3.17205e-05, No Iterations 1
porous GAMG:  Solving for p_rgh, Initial residual = 0.000340358, Final residual = 1.42537e-06, No Iterations 6
porous time step continuity errors : sum local = 5.13029e-06, global = 6.03376e-07, cumulative = 0.00093501
air    GAMG:  Solving for p_rgh, Initial residual = 0.00953426, Final residual = 8.57631e-05, No Iterations 3
air    time step continuity errors : sum local = 0.000235741, global = -3.44643e-05, cumulative = 0.0755386
air    DILUPBiCGStab:  Solving for epsilon, Initial residual = 0.00460382, Final residual = 2.62598e-05, No Iterations 1
air    DILUPBiCGStab:  Solving for k, Initial residual = 0.00890161, Final residual = 3.25035e-05, No Iterations 1
       ExecutionTime = 219.178 s  ClockTime = 219 s
       
       Time = 45s
       
porous DILUPBiCGStab:  Solving for Ux, Initial residual = 0.00528949, Final residual = 2.00175e-05, No Iterations 1
porous DILUPBiCGStab:  Solving for Uy, Initial residual = 0.00918471, Final residual = 3.4143e-05, No Iterations 1
porous DILUPBiCGStab:  Solving for Uz, Initial residual = 0.00472541, Final residual = 2.93547e-05, No Iterations 1
air    DILUPBiCGStab:  Solving for Ux, Initial residual = 0.00276836, Final residual = 1.1388e-05, No Iterations 1
air    DILUPBiCGStab:  Solving for Uy, Initial residual = 0.00301878, Final residual = 1.17371e-05, No Iterations 1
air    DILUPBiCGStab:  Solving for Uz, Initial residual = 0.00324746, Final residual = 1.14913e-05, No Iterations 1
porous DILUPBiCGStab:  Solving for e, Initial residual = 0.00755326, Final residual = 2.81325e-05, No Iterations 1
air    DILUPBiCGStab:  Solving for e, Initial residual = 0.00762965, Final residual = 3.09902e-05, No Iterations 1
porous GAMG:  Solving for p_rgh, Initial residual = 0.000334699, Final residual = 1.34094e-06, No Iterations 6
porous time step continuity errors : sum local = 4.78958e-06, global = 5.35212e-07, cumulative = 0.000935545
air    GAMG:  Solving for p_rgh, Initial residual = 0.00941252, Final residual = 8.41075e-05, No Iterations 3
air    time step continuity errors : sum local = 0.000230787, global = -3.34403e-05, cumulative = 0.0755051
air    DILUPBiCGStab:  Solving for epsilon, Initial residual = 0.00451567, Final residual = 2.57924e-05, No Iterations 1
air    DILUPBiCGStab:  Solving for k, Initial residual = 0.00871307, Final residual = 3.17195e-05, No Iterations 1
       ExecutionTime = 221.053 s  ClockTime = 221 s
       
       Time = 46s
       
porous DILUPBiCGStab:  Solving for Ux, Initial residual = 0.00515127, Final residual = 1.93239e-05, No Iterations 1
porous DILUPBiCGStab:  Solving for Uy, Initial residual = 0.0089443, Final residual = 3.30738e-05, No Iterations 1
porous DILUPBiCGStab:  Solving for Uz, Initial residual = 0.00459919, Final residual = 2.82141e-05, No Iterations 1
air    DILUPBiCGStab:  Solving for Ux, Initial residual = 0.00274287, Final residual = 1.12066e-05, No Iterations 1
air    DILUPBiCGStab:  Solving for Uy, Initial residual = 0.00298932, Final residual = 1.15445e-05, No Iterations 1
air    DILUPBiCGStab:  Solving for Uz, Initial residual = 0.00320892, Final residual = 1.13322e-05, No Iterations 1
porous DILUPBiCGStab:  Solving for e, Initial residual = 0.00742219, Final residual = 2.73184e-05, No Iterations 1
air    DILUPBiCGStab:  Solving for e, Initial residual = 0.00754324, Final residual = 3.0302e-05, No Iterations 1
porous GAMG:  Solving for p_rgh, Initial residual = 0.000329754, Final residual = 1.2632e-06, No Iterations 6
porous time step continuity errors : sum local = 4.4865e-06, global = 4.72945e-07, cumulative = 0.000936018
[...]
air    DILUPBiCGStab:  Solving for Uy, Initial residual = 4.45231e-05, Final residual = 1.49973e-07, No Iterations 1
air    DILUPBiCGStab:  Solving for Uz, Initial residual = 2.01862e-05, Final residual = 8.66696e-08, No Iterations 1
porous DILUPBiCGStab:  Solving for e, Initial residual = 1.87611e-06, Final residual = 3.43864e-09, No Iterations 1
air    DILUPBiCGStab:  Solving for e, Initial residual = 0.00012288, Final residual = 3.90047e-07, No Iterations 1
porous GAMG:  Solving for p_rgh, Initial residual = 1.00023e-06, Final residual = 6.33039e-07, No Iterations 10
porous time step continuity errors : sum local = 1.81733e-06, global = 3.94756e-09, cumulative = 0.000941538
air    GAMG:  Solving for p_rgh, Initial residual = 0.000278221, Final residual = 1.81891e-06, No Iterations 2
air    time step continuity errors : sum local = 6.26009e-06, global = -3.98314e-08, cumulative = 0.073293
air    DILUPBiCGStab:  Solving for epsilon, Initial residual = 0.000114648, Final residual = 4.23542e-07, No Iterations 1
air    DILUPBiCGStab:  Solving for k, Initial residual = 0.000232037, Final residual = 7.22835e-07, No Iterations 1
       ExecutionTime = 4111.28 s  ClockTime = 4121 s
       
       Time = 1990s
       
porous DILUPBiCGStab:  Solving for Ux, Initial residual = 4.2656e-09, Final residual = 4.2656e-09, No Iterations 0
porous DILUPBiCGStab:  Solving for Uy, Initial residual = 6.10356e-08, Final residual = 6.10356e-08, No Iterations 0
porous DILUPBiCGStab:  Solving for Uz, Initial residual = 2.52852e-08, Final residual = 2.52852e-08, No Iterations 0
air    DILUPBiCGStab:  Solving for Ux, Initial residual = 4.95638e-05, Final residual = 1.88981e-07, No Iterations 1
air    DILUPBiCGStab:  Solving for Uy, Initial residual = 4.44101e-05, Final residual = 1.49522e-07, No Iterations 1
air    DILUPBiCGStab:  Solving for Uz, Initial residual = 2.01332e-05, Final residual = 8.64628e-08, No Iterations 1
porous DILUPBiCGStab:  Solving for e, Initial residual = 1.87026e-06, Final residual = 3.42796e-09, No Iterations 1
air    DILUPBiCGStab:  Solving for e, Initial residual = 0.000122665, Final residual = 3.89407e-07, No Iterations 1
porous GAMG:  Solving for p_rgh, Initial residual = 9.9693e-07, Final residual = 6.34468e-07, No Iterations 10
porous time step continuity errors : sum local = 1.82311e-06, global = -3.57435e-09, cumulative = 0.000941535
air    GAMG:  Solving for p_rgh, Initial residual = 0.000230375, Final residual = 1.70502e-06, No Iterations 2
air    time step continuity errors : sum local = 5.86848e-06, global = -2.48668e-08, cumulative = 0.0732929
air    DILUPBiCGStab:  Solving for epsilon, Initial residual = 0.00011454, Final residual = 4.23144e-07, No Iterations 1
air    DILUPBiCGStab:  Solving for k, Initial residual = 0.000231869, Final residual = 7.2226e-07, No Iterations 1
       ExecutionTime = 4112.51 s  ClockTime = 4122 s
       
       Time = 1991s
       
porous DILUPBiCGStab:  Solving for Ux, Initial residual = 4.37792e-09, Final residual = 4.37792e-09, No Iterations 0
porous DILUPBiCGStab:  Solving for Uy, Initial residual = 6.03659e-08, Final residual = 6.03659e-08, No Iterations 0
porous DILUPBiCGStab:  Solving for Uz, Initial residual = 2.46782e-08, Final residual = 2.46782e-08, No Iterations 0
air    DILUPBiCGStab:  Solving for Ux, Initial residual = 4.94685e-05, Final residual = 1.88569e-07, No Iterations 1
air    DILUPBiCGStab:  Solving for Uy, Initial residual = 4.43178e-05, Final residual = 1.4924e-07, No Iterations 1
air    DILUPBiCGStab:  Solving for Uz, Initial residual = 2.00836e-05, Final residual = 8.63279e-08, No Iterations 1
porous DILUPBiCGStab:  Solving for e, Initial residual = 1.86442e-06, Final residual = 3.41731e-09, No Iterations 1
air    DILUPBiCGStab:  Solving for e, Initial residual = 0.000122454, Final residual = 3.88865e-07, No Iterations 1
porous GAMG:  Solving for p_rgh, Initial residual = 1.00586e-06, Final residual = 6.32095e-07, No Iterations 10
porous time step continuity errors : sum local = 1.82225e-06, global = 1.29542e-09, cumulative = 0.000941536
air    GAMG:  Solving for p_rgh, Initial residual = 0.000232059, Final residual = 1.62847e-06, No Iterations 2
air    time step continuity errors : sum local = 5.60518e-06, global = -8.5125e-08, cumulative = 0.0732929
air    DILUPBiCGStab:  Solving for epsilon, Initial residual = 0.000114432, Final residual = 4.22732e-07, No Iterations 1
air    DILUPBiCGStab:  Solving for k, Initial residual = 0.000231699, Final residual = 7.21635e-07, No Iterations 1
       ExecutionTime = 4113.72 s  ClockTime = 4123 s
       
       Time = 1992s
       
porous DILUPBiCGStab:  Solving for Ux, Initial residual = 4.18701e-09, Final residual = 4.18701e-09, No Iterations 0
porous DILUPBiCGStab:  Solving for Uy, Initial residual = 6.3118e-08, Final residual = 6.3118e-08, No Iterations 0
porous DILUPBiCGStab:  Solving for Uz, Initial residual = 2.5522e-08, Final residual = 2.5522e-08, No Iterations 0
air    DILUPBiCGStab:  Solving for Ux, Initial residual = 4.9374e-05, Final residual = 1.88458e-07, No Iterations 1
air    DILUPBiCGStab:  Solving for Uy, Initial residual = 4.42254e-05, Final residual = 1.48979e-07, No Iterations 1
air    DILUPBiCGStab:  Solving for Uz, Initial residual = 2.0036e-05, Final residual = 8.62379e-08, No Iterations 1
porous DILUPBiCGStab:  Solving for e, Initial residual = 1.85858e-06, Final residual = 3.40668e-09, No Iterations 1
air    DILUPBiCGStab:  Solving for e, Initial residual = 0.000122242, Final residual = 3.88245e-07, No Iterations 1
porous GAMG:  Solving for p_rgh, Initial residual = 1.00343e-06, Final residual = 6.34274e-07, No Iterations 10
porous time step continuity errors : sum local = 1.8224e-06, global = -5.58137e-09, cumulative = 0.000941531
air    GAMG:  Solving for p_rgh, Initial residual = 0.00026504, Final residual = 1.88657e-06, No Iterations 2
air    time step continuity errors : sum local = 6.49367e-06, global = -8.18525e-08, cumulative = 0.0732928
air    DILUPBiCGStab:  Solving for epsilon, Initial residual = 0.000114331, Final residual = 4.2246e-07, No Iterations 1
air    DILUPBiCGStab:  Solving for k, Initial residual = 0.000231529, Final residual = 7.21043e-07, No Iterations 1
       ExecutionTime = 4114.99 s  ClockTime = 4123 s
       
       Time = 1993s
       
porous DILUPBiCGStab:  Solving for Ux, Initial residual = 4.4654e-09, Final residual = 4.4654e-09, No Iterations 0
porous DILUPBiCGStab:  Solving for Uy, Initial residual = 6.11817e-08, Final residual = 6.11817e-08, No Iterations 0
porous DILUPBiCGStab:  Solving for Uz, Initial residual = 2.53297e-08, Final residual = 2.53297e-08, No Iterations 0
air    DILUPBiCGStab:  Solving for Ux, Initial residual = 4.92847e-05, Final residual = 1.88115e-07, No Iterations 1
air    DILUPBiCGStab:  Solving for Uy, Initial residual = 4.41244e-05, Final residual = 1.48654e-07, No Iterations 1
air    DILUPBiCGStab:  Solving for Uz, Initial residual = 1.99897e-05, Final residual = 8.60277e-08, No Iterations 1
porous DILUPBiCGStab:  Solving for e, Initial residual = 1.85275e-06, Final residual = 3.39606e-09, No Iterations 1
air    DILUPBiCGStab:  Solving for e, Initial residual = 0.000122026, Final residual = 3.87578e-07, No Iterations 1
porous GAMG:  Solving for p_rgh, Initial residual = 1.00172e-06, Final residual = 6.32581e-07, No Iterations 10
porous time step continuity errors : sum local = 1.82335e-06, global = -3.34676e-09, cumulative = 0.000941527
air    GAMG:  Solving for p_rgh, Initial residual = 0.000241622, Final residual = 1.7644e-06, No Iterations 2
air    time step continuity errors : sum local = 6.07343e-06, global = -6.88903e-08, cumulative = 0.0732927
air    DILUPBiCGStab:  Solving for epsilon, Initial residual = 0.000114226, Final residual = 4.22122e-07, No Iterations 1
air    DILUPBiCGStab:  Solving for k, Initial residual = 0.000231362, Final residual = 7.20467e-07, No Iterations 1
       ExecutionTime = 4116.23 s  ClockTime = 4124 s
       
       Time = 1994s
       
porous DILUPBiCGStab:  Solving for Ux, Initial residual = 4.13129e-09, Final residual = 4.13129e-09, No Iterations 0
porous DILUPBiCGStab:  Solving for Uy, Initial residual = 5.93016e-08, Final residual = 5.93016e-08, No Iterations 0
porous DILUPBiCGStab:  Solving for Uz, Initial residual = 2.50972e-08, Final residual = 2.50972e-08, No Iterations 0
air    DILUPBiCGStab:  Solving for Ux, Initial residual = 4.9186e-05, Final residual = 1.87778e-07, No Iterations 1
air    DILUPBiCGStab:  Solving for Uy, Initial residual = 4.40262e-05, Final residual = 1.48404e-07, No Iterations 1
air    DILUPBiCGStab:  Solving for Uz, Initial residual = 1.99345e-05, Final residual = 8.58726e-08, No Iterations 1
porous DILUPBiCGStab:  Solving for e, Initial residual = 1.84693e-06, Final residual = 3.38547e-09, No Iterations 1
air    DILUPBiCGStab:  Solving for e, Initial residual = 0.000121811, Final residual = 3.86945e-07, No Iterations 1
porous GAMG:  Solving for p_rgh, Initial residual = 1.00122e-06, Final residual = 6.35064e-07, No Iterations 10
porous time step continuity errors : sum local = 1.82044e-06, global = -4.49596e-09, cumulative = 0.000941523
air    GAMG:  Solving for p_rgh, Initial residual = 0.000248761, Final residual = 1.66948e-06, No Iterations 2
air    time step continuity errors : sum local = 5.7469e-06, global = -3.26237e-08, cumulative = 0.0732927
air    DILUPBiCGStab:  Solving for epsilon, Initial residual = 0.00011412, Final residual = 4.21736e-07, No Iterations 1
air    DILUPBiCGStab:  Solving for k, Initial residual = 0.000231191, Final residual = 7.19853e-07, No Iterations 1
       ExecutionTime = 4117.39 s  ClockTime = 4126 s
       
       Time = 1995s
       
porous DILUPBiCGStab:  Solving for Ux, Initial residual = 4.03329e-09, Final residual = 4.03329e-09, No Iterations 0
porous DILUPBiCGStab:  Solving for Uy, Initial residual = 6.00829e-08, Final residual = 6.00829e-08, No Iterations 0
porous DILUPBiCGStab:  Solving for Uz, Initial residual = 2.56686e-08, Final residual = 2.56686e-08, No Iterations 0
air    DILUPBiCGStab:  Solving for Ux, Initial residual = 4.90993e-05, Final residual = 1.87538e-07, No Iterations 1
air    DILUPBiCGStab:  Solving for Uy, Initial residual = 4.39382e-05, Final residual = 1.48148e-07, No Iterations 1
air    DILUPBiCGStab:  Solving for Uz, Initial residual = 1.98893e-05, Final residual = 8.57908e-08, No Iterations 1
porous DILUPBiCGStab:  Solving for e, Initial residual = 1.84111e-06, Final residual = 3.37489e-09, No Iterations 1
air    DILUPBiCGStab:  Solving for e, Initial residual = 0.000121602, Final residual = 3.86426e-07, No Iterations 1
porous GAMG:  Solving for p_rgh, Initial residual = 1.00111e-06, Final residual = 6.31502e-07, No Iterations 10
porous time step continuity errors : sum local = 1.81692e-06, global = 6.25805e-09, cumulative = 0.000941529
air    GAMG:  Solving for p_rgh, Initial residual = 0.00026498, Final residual = 1.77093e-06, No Iterations 2
air    time step continuity errors : sum local = 6.09617e-06, global = -7.4865e-08, cumulative = 0.0732926
air    DILUPBiCGStab:  Solving for epsilon, Initial residual = 0.000114015, Final residual = 4.2139e-07, No Iterations 1
air    DILUPBiCGStab:  Solving for k, Initial residual = 0.000231021, Final residual = 7.19227e-07, No Iterations 1
       ExecutionTime = 4118.59 s  ClockTime = 4127 s
       
       Time = 1996s
       
porous DILUPBiCGStab:  Solving for Ux, Initial residual = 3.96123e-09, Final residual = 3.96123e-09, No Iterations 0
porous DILUPBiCGStab:  Solving for Uy, Initial residual = 6.31505e-08, Final residual = 6.31505e-08, No Iterations 0
porous DILUPBiCGStab:  Solving for Uz, Initial residual = 2.52705e-08, Final residual = 2.52705e-08, No Iterations 0
air    DILUPBiCGStab:  Solving for Ux, Initial residual = 4.9005e-05, Final residual = 1.87166e-07, No Iterations 1
air    DILUPBiCGStab:  Solving for Uy, Initial residual = 4.38311e-05, Final residual = 1.47739e-07, No Iterations 1
air    DILUPBiCGStab:  Solving for Uz, Initial residual = 1.98371e-05, Final residual = 8.55878e-08, No Iterations 1
porous DILUPBiCGStab:  Solving for e, Initial residual = 1.83531e-06, Final residual = 3.36434e-09, No Iterations 1
air    DILUPBiCGStab:  Solving for e, Initial residual = 0.000121389, Final residual = 3.85782e-07, No Iterations 1
porous GAMG:  Solving for p_rgh, Initial residual = 1.00245e-06, Final residual = 6.31393e-07, No Iterations 10
porous time step continuity errors : sum local = 1.81623e-06, global = -1.28698e-09, cumulative = 0.000941528
air    GAMG:  Solving for p_rgh, Initial residual = 0.000234374, Final residual = 1.83192e-06, No Iterations 2
air    time step continuity errors : sum local = 6.30647e-06, global = -9.09405e-08, cumulative = 0.0732925
air    DILUPBiCGStab:  Solving for epsilon, Initial residual = 0.000113913, Final residual = 4.21103e-07, No Iterations 1
air    DILUPBiCGStab:  Solving for k, Initial residual = 0.000230852, Final residual = 7.18659e-07, No Iterations 1
       ExecutionTime = 4119.75 s  ClockTime = 4128 s
       
       Time = 1997s
       
porous DILUPBiCGStab:  Solving for Ux, Initial residual = 4.31302e-09, Final residual = 4.31302e-09, No Iterations 0
porous DILUPBiCGStab:  Solving for Uy, Initial residual = 6.18044e-08, Final residual = 6.18044e-08, No Iterations 0
porous DILUPBiCGStab:  Solving for Uz, Initial residual = 2.57156e-08, Final residual = 2.57156e-08, No Iterations 0
air    DILUPBiCGStab:  Solving for Ux, Initial residual = 4.89214e-05, Final residual = 1.86969e-07, No Iterations 1
air    DILUPBiCGStab:  Solving for Uy, Initial residual = 4.37461e-05, Final residual = 1.47561e-07, No Iterations 1
air    DILUPBiCGStab:  Solving for Uz, Initial residual = 1.97895e-05, Final residual = 8.54502e-08, No Iterations 1
porous DILUPBiCGStab:  Solving for e, Initial residual = 1.82951e-06, Final residual = 3.3538e-09, No Iterations 1
air    DILUPBiCGStab:  Solving for e, Initial residual = 0.000121173, Final residual = 3.85138e-07, No Iterations 1
porous GAMG:  Solving for p_rgh, Initial residual = 9.99651e-07, Final residual = 6.34023e-07, No Iterations 10
porous time step continuity errors : sum local = 1.81837e-06, global = 1.28652e-10, cumulative = 0.000941528
air    GAMG:  Solving for p_rgh, Initial residual = 0.000258114, Final residual = 1.73183e-06, No Iterations 2
air    time step continuity errors : sum local = 5.96196e-06, global = -5.2085e-08, cumulative = 0.0732925
air    DILUPBiCGStab:  Solving for epsilon, Initial residual = 0.000113806, Final residual = 4.20725e-07, No Iterations 1
air    DILUPBiCGStab:  Solving for k, Initial residual = 0.00023068, Final residual = 7.18015e-07, No Iterations 1
       ExecutionTime = 4120.98 s  ClockTime = 4129 s
       
       Time = 1998s
       
porous DILUPBiCGStab:  Solving for Ux, Initial residual = 4.16617e-09, Final residual = 4.16617e-09, No Iterations 0
porous DILUPBiCGStab:  Solving for Uy, Initial residual = 5.94521e-08, Final residual = 5.94521e-08, No Iterations 0
porous DILUPBiCGStab:  Solving for Uz, Initial residual = 2.61172e-08, Final residual = 2.61172e-08, No Iterations 0
air    DILUPBiCGStab:  Solving for Ux, Initial residual = 4.88218e-05, Final residual = 1.86603e-07, No Iterations 1
air    DILUPBiCGStab:  Solving for Uy, Initial residual = 4.36403e-05, Final residual = 1.4712e-07, No Iterations 1
air    DILUPBiCGStab:  Solving for Uz, Initial residual = 1.97402e-05, Final residual = 8.52617e-08, No Iterations 1
porous DILUPBiCGStab:  Solving for e, Initial residual = 1.82372e-06, Final residual = 3.34328e-09, No Iterations 1
air    DILUPBiCGStab:  Solving for e, Initial residual = 0.000120959, Final residual = 3.84495e-07, No Iterations 1
porous GAMG:  Solving for p_rgh, Initial residual = 9.99483e-07, Final residual = 6.33288e-07, No Iterations 10
porous time step continuity errors : sum local = 1.82168e-06, global = -3.66432e-09, cumulative = 0.000941524
air    GAMG:  Solving for p_rgh, Initial residual = 0.000230565, Final residual = 1.69036e-06, No Iterations 2
air    time step continuity errors : sum local = 5.81941e-06, global = -7.35627e-09, cumulative = 0.0732924
air    DILUPBiCGStab:  Solving for epsilon, Initial residual = 0.000113698, Final residual = 4.20336e-07, No Iterations 1
air    DILUPBiCGStab:  Solving for k, Initial residual = 0.000230511, Final residual = 7.17428e-07, No Iterations 1
       ExecutionTime = 4122.16 s  ClockTime = 4131 s
       
       Time = 1999s
       
porous DILUPBiCGStab:  Solving for Ux, Initial residual = 3.95556e-09, Final residual = 3.95556e-09, No Iterations 0
porous DILUPBiCGStab:  Solving for Uy, Initial residual = 5.94417e-08, Final residual = 5.94417e-08, No Iterations 0
porous DILUPBiCGStab:  Solving for Uz, Initial residual = 2.51948e-08, Final residual = 2.51948e-08, No Iterations 0
air    DILUPBiCGStab:  Solving for Ux, Initial residual = 4.87256e-05, Final residual = 1.86122e-07, No Iterations 1
air    DILUPBiCGStab:  Solving for Uy, Initial residual = 4.35435e-05, Final residual = 1.46732e-07, No Iterations 1
air    DILUPBiCGStab:  Solving for Uz, Initial residual = 1.96913e-05, Final residual = 8.51313e-08, No Iterations 1
porous DILUPBiCGStab:  Solving for e, Initial residual = 1.81794e-06, Final residual = 3.33279e-09, No Iterations 1
air    DILUPBiCGStab:  Solving for e, Initial residual = 0.000120748, Final residual = 3.83952e-07, No Iterations 1
porous GAMG:  Solving for p_rgh, Initial residual = 1.0028e-06, Final residual = 6.33391e-07, No Iterations 10
porous time step continuity errors : sum local = 1.82195e-06, global = -8.08084e-10, cumulative = 0.000941523
air    GAMG:  Solving for p_rgh, Initial residual = 0.000194348, Final residual = 1.59814e-06, No Iterations 2
air    time step continuity errors : sum local = 5.50213e-06, global = -2.95369e-08, cumulative = 0.0732924
air    DILUPBiCGStab:  Solving for epsilon, Initial residual = 0.000113598, Final residual = 4.20065e-07, No Iterations 1
air    DILUPBiCGStab:  Solving for k, Initial residual = 0.000230342, Final residual = 7.1688e-07, No Iterations 1
       ExecutionTime = 4123.37 s  ClockTime = 4132 s
       
       Time = 2000s
       
porous DILUPBiCGStab:  Solving for Ux, Initial residual = 4.13092e-09, Final residual = 4.13092e-09, No Iterations 0
porous DILUPBiCGStab:  Solving for Uy, Initial residual = 5.59515e-08, Final residual = 5.59515e-08, No Iterations 0
porous DILUPBiCGStab:  Solving for Uz, Initial residual = 2.47557e-08, Final residual = 2.47557e-08, No Iterations 0
air    DILUPBiCGStab:  Solving for Ux, Initial residual = 4.86477e-05, Final residual = 1.86122e-07, No Iterations 1
air    DILUPBiCGStab:  Solving for Uy, Initial residual = 4.34706e-05, Final residual = 1.46912e-07, No Iterations 1
air    DILUPBiCGStab:  Solving for Uz, Initial residual = 1.96489e-05, Final residual = 8.5083e-08, No Iterations 1
porous DILUPBiCGStab:  Solving for e, Initial residual = 1.81216e-06, Final residual = 3.32232e-09, No Iterations 1
air    DILUPBiCGStab:  Solving for e, Initial residual = 0.000120537, Final residual = 3.83353e-07, No Iterations 1
porous GAMG:  Solving for p_rgh, Initial residual = 1.00168e-06, Final residual = 6.33837e-07, No Iterations 10
porous time step continuity errors : sum local = 1.82242e-06, global = -1.60565e-10, cumulative = 0.000941523
air    GAMG:  Solving for p_rgh, Initial residual = 0.000278941, Final residual = 1.82353e-06, No Iterations 2
air    time step continuity errors : sum local = 6.27819e-06, global = -9.69175e-08, cumulative = 0.0732923
air    DILUPBiCGStab:  Solving for epsilon, Initial residual = 0.000113495, Final residual = 4.19775e-07, No Iterations 1
air    DILUPBiCGStab:  Solving for k, Initial residual = 0.000230172, Final residual = 7.16276e-07, No Iterations 1
       ExecutionTime = 4127.31 s  ClockTime = 4136 s
       
       End
       
